========================================
  NWQSim ADAPT-VQE Memory Profiling
========================================
CUDA detected. GPU information:
NVIDIA A100-SXM4-40GB, 40960, 40327, 1
NVIDIA A100-SXM4-40GB, 40960, 40327, 1
NVIDIA A100-SXM4-40GB, 40960, 40327, 1
NVIDIA A100-SXM4-40GB, 40960, 40327, 1

Configuration:
  Input file: /global/homes/z/zhen002/NSMem/H2O_1.75_Eq_11-Orbitals_DUCC3_H2O-1.75_Eq_DUCC3_10-electrons_11-Orbitals.out-xacc
  Output file: memory_profile_output.log
  Build type: GPU-enabled ADAPT-VQE

Starting ADAPT-VQE with GPU memory profiling...
Output will be saved to: memory_profile_output.log

=== ADAPT-VQE Memory Profiling Session ===
Date: Thu 18 Sep 2025 06:17:05 PM PDT
System Info:
  CPU: AMD EPYC 7763 64-Core Processor
  Total RAM: 251Gi
  Available RAM: 227Gi
GPU Info:
NVIDIA A100-SXM4-40GB, 40960 MiB
NVIDIA A100-SXM4-40GB, 40960 MiB
NVIDIA A100-SXM4-40GB, 40960 MiB
NVIDIA A100-SXM4-40GB, 40960 MiB

=== Initial Memory State ===
CPU Memory:
               total        used        free      shared  buff/cache   available
Mem:           251Gi        23Gi       233Gi       809Mi       1.3Gi       227Gi
Swap:             0B          0B          0B
GPU Memory:
40960, 40327, 1
40960, 40327, 1
40960, 40327, 1
40960, 40327, 1

Starting simulation...
Reading Hamiltonian...
Constructed 33016 Pauli observables
Constructing the ansatz...
Starting with 10 Gates and 0 parameters
Beginning ADAPT-VQE loop...

=== ADAPT-VQE Memory Profiling (CPU + GPU) ===
Initial CPU memory:
  RSS (Resident Set Size): 255.53 MB
Initial GPU memory:
  Total GPU memory: 39.3812 GB
  Free GPU memory: 38.8380 GB
  Used GPU memory: 0.5432 GB

Starting UCCSD operator pool allocation...
  Pool size: 645 operators
  Hamiltonian terms: 7833
Processing operator 0/645 - CPU: 255.53 MB, GPU: 38.8380 GB free
Operator 0: 11136 Pauli terms -> 3077 cliques (efficiency: 27.6%) - Memory: 32.65 MB
  STL Containers: PauliMap=27.21MB, CommOps=14.72MB, Cliques=0.23MB
  Container Overhead: PauliMap=1.0x, CommOps=19.2x
  Container Details: CommOps size=11136, capacity=214357, PauliMap size=214357, buckets=351061
  Accumulated Data: Coeffs=0.00MB, ZMasks=0.00MB, Observables=0.00MB
  Circuit Construction: +11.62 MB (3077 circuits)
  Cumulative Circuit Memory: 11.62 MB
  Memory/Clique: 0.004 MB
  → Memory delta: CPU +14.46 MB, GPU +4.00 MB [0.4x]
Processing operator 1/645 - CPU: 267.28 MB, GPU: 38.8341 GB free
Operator 1: 11136 Pauli terms -> 2962 cliques (efficiency: 26.6%) - Memory: 32.58 MB
  STL Containers: PauliMap=27.17MB, CommOps=14.69MB, Cliques=0.22MB
  Container Overhead: PauliMap=1.0x, CommOps=19.2x
  Container Details: CommOps size=11136, capacity=214009, PauliMap size=214009, buckets=351061
  Accumulated Data: Coeffs=0.17MB, ZMasks=0.17MB, Observables=0.09MB
  Circuit Construction: +22.11 MB (2962 circuits)
  Cumulative Circuit Memory: 33.73 MB
  Memory/Clique: 0.007 MB (prev: 0.004 MB)
  → Memory delta: CPU +22.63 MB, GPU +4.00 MB [0.7x]
Processing operator 2/645 - CPU: 289.91 MB, GPU: 38.8302 GB free
Operator 2: 11136 Pauli terms -> 2991 cliques (efficiency: 26.9%) - Memory: 32.73 MB
  STL Containers: PauliMap=27.29MB, CommOps=14.77MB, Cliques=0.22MB
  Container Overhead: PauliMap=1.0x, CommOps=19.3x
  Container Details: CommOps size=11136, capacity=215041, PauliMap size=215041, buckets=351061
  Accumulated Data: Coeffs=0.34MB, ZMasks=0.34MB, Observables=0.18MB
  Circuit Construction: +16.81 MB (2991 circuits)
  Cumulative Circuit Memory: 50.54 MB
  Memory/Clique: 0.006 MB (prev: 0.007 MB)
  → Memory delta: CPU +17.57 MB, GPU +2.00 MB [0.5x]
Processing operator 3/645 - CPU: 306.96 MB, GPU: 38.8282 GB free
Operator 3: 11136 Pauli terms -> 3037 cliques (efficiency: 27.3%) - Memory: 32.89 MB
  STL Containers: PauliMap=27.41MB, CommOps=14.84MB, Cliques=0.22MB
  Container Overhead: PauliMap=1.0x, CommOps=19.4x
  Container Details: CommOps size=11136, capacity=216109, PauliMap size=216109, buckets=351061
  Accumulated Data: Coeffs=0.51MB, ZMasks=0.51MB, Observables=0.28MB
  Circuit Construction: +17.86 MB (3037 circuits)
  Cumulative Circuit Memory: 68.40 MB
  Memory/Clique: 0.006 MB (prev: 0.006 MB)
  → Memory delta: CPU +18.37 MB, GPU +4.00 MB [0.6x]
Processing operator 4/645 - CPU: 324.56 MB, GPU: 38.8243 GB free
Operator 4: 11136 Pauli terms -> 3064 cliques (efficiency: 27.5%) - Memory: 32.67 MB
  STL Containers: PauliMap=27.23MB, CommOps=14.73MB, Cliques=0.23MB
  Container Overhead: PauliMap=1.0x, CommOps=19.3x
  Container Details: CommOps size=11136, capacity=214549, PauliMap size=214549, buckets=351061
  Accumulated Data: Coeffs=0.68MB, ZMasks=0.68MB, Observables=0.37MB
  Circuit Construction: +25.85 MB (3064 circuits)
  Cumulative Circuit Memory: 94.25 MB
  Memory/Clique: 0.008 MB (prev: 0.006 MB)
  → Memory delta: CPU +26.36 MB, GPU +2.00 MB [0.8x]
Processing operator 5/645 - CPU: 350.92 MB, GPU: 38.8224 GB free
Operator 5: 9384 Pauli terms -> 3152 cliques (efficiency: 33.6%) - Memory: 34.09 MB
  STL Containers: PauliMap=28.47MB, CommOps=15.48MB, Cliques=0.22MB
  Container Overhead: PauliMap=1.0x, CommOps=24.0x
  Container Details: CommOps size=9384, capacity=225412, PauliMap size=225412, buckets=351061
  Accumulated Data: Coeffs=0.72MB, ZMasks=0.72MB, Observables=0.46MB
  Circuit Construction: +19.02 MB (3152 circuits)
  Cumulative Circuit Memory: 113.27 MB
  Memory/Clique: 0.006 MB (prev: 0.008 MB)
  → Memory delta: CPU +21.26 MB, GPU +4.00 MB [0.6x]
Processing operator 6/645 - CPU: 369.96 MB, GPU: 38.8185 GB free
Operator 6: 11136 Pauli terms -> 2949 cliques (efficiency: 26.5%) - Memory: 32.63 MB
  STL Containers: PauliMap=27.21MB, CommOps=14.72MB, Cliques=0.22MB
  Container Overhead: PauliMap=1.0x, CommOps=19.2x
  Container Details: CommOps size=11136, capacity=214365, PauliMap size=214365, buckets=351061
  Accumulated Data: Coeffs=1.02MB, ZMasks=1.02MB, Observables=0.56MB
  Circuit Construction: +19.32 MB (2949 circuits)
  Cumulative Circuit Memory: 132.59 MB
  Memory/Clique: 0.007 MB (prev: 0.006 MB)
  → Memory delta: CPU +19.32 MB, GPU +2.00 MB [0.6x]
Processing operator 7/645 - CPU: 389.28 MB, GPU: 38.8165 GB free
Operator 7: 11136 Pauli terms -> 2871 cliques (efficiency: 25.8%) - Memory: 32.58 MB
  STL Containers: PauliMap=27.18MB, CommOps=14.70MB, Cliques=0.22MB
  Container Overhead: PauliMap=1.0x, CommOps=19.2x
  Container Details: CommOps size=11136, capacity=214101, PauliMap size=214101, buckets=351061
  Accumulated Data: Coeffs=1.19MB, ZMasks=1.19MB, Observables=0.65MB
  Circuit Construction: +15.07 MB (2871 circuits)
  Cumulative Circuit Memory: 147.66 MB
  Memory/Clique: 0.005 MB (prev: 0.007 MB)
  → Memory delta: CPU +15.07 MB, GPU +4.00 MB [0.5x]
Processing operator 8/645 - CPU: 404.35 MB, GPU: 38.8126 GB free
Operator 8: 11136 Pauli terms -> 2935 cliques (efficiency: 26.4%) - Memory: 32.72 MB
  STL Containers: PauliMap=27.28MB, CommOps=14.76MB, Cliques=0.22MB
  Container Overhead: PauliMap=1.0x, CommOps=19.3x
  Container Details: CommOps size=11136, capacity=214997, PauliMap size=214997, buckets=351061
  Accumulated Data: Coeffs=1.36MB, ZMasks=1.36MB, Observables=0.74MB
  Circuit Construction: +13.29 MB (2935 circuits)
  Cumulative Circuit Memory: 160.94 MB
  Memory/Clique: 0.005 MB (prev: 0.005 MB)
  → Memory delta: CPU +14.06 MB, GPU +2.00 MB [0.4x]
Processing operator 9/645 - CPU: 418.41 MB, GPU: 38.8107 GB free
Operator 9: 11136 Pauli terms -> 2988 cliques (efficiency: 26.8%) - Memory: 32.82 MB
  STL Containers: PauliMap=27.36MB, CommOps=14.81MB, Cliques=0.22MB
  Container Overhead: PauliMap=1.0x, CommOps=19.4x
  Container Details: CommOps size=11136, capacity=215669, PauliMap size=215669, buckets=351061
  Accumulated Data: Coeffs=1.53MB, ZMasks=1.53MB, Observables=0.83MB
  Circuit Construction: +18.61 MB (2988 circuits)
  Cumulative Circuit Memory: 179.55 MB
  Memory/Clique: 0.006 MB (prev: 0.005 MB)
  → Memory delta: CPU +19.37 MB, GPU +4.00 MB [0.6x]

--- SUMMARY: Operators 0-9 ---
  Batch Memory Growth: +182.25 MB
  Pauli Terms Generated: 109608
  Commuting Groups: 30026
  Average Efficiency: 27.5%
  Cumulative Memory: 437.78 MB
  Average Memory/Operator: 18.22 MB
  Theoretical Memory/Op: 0.62 MB (bloat factor: 29.5x)
  Memory Growth Rate: 18.2 MB/op
  Memory Bloat Factor: 29.5x
  System Memory Pressure: 10.6%
--- END SUMMARY ---

Processing operator 10/645 - CPU: 437.78 MB, GPU: 38.8068 GB free
Operator 10: 11136 Pauli terms -> 3049 cliques (efficiency: 27.4%) - Memory: 32.71 MB
  STL Containers: PauliMap=27.26MB, CommOps=14.75MB, Cliques=0.22MB
  Container Overhead: PauliMap=1.0x, CommOps=19.3x
  Container Details: CommOps size=11136, capacity=214797, PauliMap size=214797, buckets=351061
  Accumulated Data: Coeffs=1.70MB, ZMasks=1.70MB, Observables=0.92MB
  Circuit Construction: +19.86 MB (3049 circuits)
  Cumulative Circuit Memory: 199.41 MB
  Memory/Clique: 0.007 MB (prev: 0.006 MB)
  → Memory delta: CPU +19.86 MB, GPU +2.00 MB [0.6x]
Processing operator 11/645 - CPU: 457.63 MB, GPU: 38.8048 GB free
Operator 11: 9384 Pauli terms -> 3047 cliques (efficiency: 32.5%) - Memory: 34.05 MB
  STL Containers: PauliMap=28.46MB, CommOps=15.47MB, Cliques=0.21MB
  Container Overhead: PauliMap=1.0x, CommOps=24.0x
  Container Details: CommOps size=9384, capacity=225248, PauliMap size=225248, buckets=351061
  Accumulated Data: Coeffs=1.58MB, ZMasks=1.58MB, Observables=1.01MB
  Circuit Construction: +18.29 MB (3047 circuits)
  Cumulative Circuit Memory: 217.70 MB
  Memory/Clique: 0.006 MB (prev: 0.007 MB)
  → Memory delta: CPU +18.29 MB, GPU +4.00 MB [0.5x]
Processing operator 12/645 - CPU: 475.93 MB, GPU: 38.8009 GB free
Operator 12: 11136 Pauli terms -> 2913 cliques (efficiency: 26.2%) - Memory: 32.80 MB
  STL Containers: PauliMap=27.35MB, CommOps=14.80MB, Cliques=0.22MB
  Container Overhead: PauliMap=1.0x, CommOps=19.4x
  Container Details: CommOps size=11136, capacity=215573, PauliMap size=215573, buckets=351061
  Accumulated Data: Coeffs=2.04MB, ZMasks=2.04MB, Observables=1.10MB
  Circuit Construction: +25.37 MB (2913 circuits)
  Cumulative Circuit Memory: 243.07 MB
  Memory/Clique: 0.009 MB (prev: 0.006 MB)
  → Memory delta: CPU +25.37 MB, GPU +2.00 MB [0.8x]
Processing operator 13/645 - CPU: 501.30 MB, GPU: 38.7990 GB free
Operator 13: 11136 Pauli terms -> 2905 cliques (efficiency: 26.1%) - Memory: 32.72 MB
  STL Containers: PauliMap=27.29MB, CommOps=14.76MB, Cliques=0.22MB
  Container Overhead: PauliMap=1.0x, CommOps=19.3x
  Container Details: CommOps size=11136, capacity=215021, PauliMap size=215021, buckets=351061
  Accumulated Data: Coeffs=2.21MB, ZMasks=2.21MB, Observables=1.19MB
  Circuit Construction: +7.77 MB (2905 circuits)
  Cumulative Circuit Memory: 250.85 MB
  Memory/Clique: 0.003 MB (prev: 0.009 MB)
  → Memory delta: CPU +7.77 MB, GPU +4.00 MB [0.2x]
Processing operator 14/645 - CPU: 509.07 MB, GPU: 38.7950 GB free
Operator 14: 11136 Pauli terms -> 2941 cliques (efficiency: 26.4%) - Memory: 32.87 MB
  STL Containers: PauliMap=27.41MB, CommOps=14.84MB, Cliques=0.22MB
  Container Overhead: PauliMap=1.0x, CommOps=19.4x
  Container Details: CommOps size=11136, capacity=216065, PauliMap size=216065, buckets=351061
  Accumulated Data: Coeffs=2.38MB, ZMasks=2.38MB, Observables=1.28MB
  Circuit Construction: +25.07 MB (2941 circuits)
  Cumulative Circuit Memory: 275.92 MB
  Memory/Clique: 0.009 MB (prev: 0.003 MB)
  → Memory delta: CPU +25.84 MB, GPU +2.00 MB [0.8x]
Processing operator 15/645 - CPU: 534.91 MB, GPU: 38.7931 GB free
Operator 15: 11136 Pauli terms -> 2970 cliques (efficiency: 26.7%) - Memory: 32.98 MB
  STL Containers: PauliMap=27.49MB, CommOps=14.89MB, Cliques=0.22MB
  Container Overhead: PauliMap=1.0x, CommOps=19.5x
  Container Details: CommOps size=11136, capacity=216801, PauliMap size=216801, buckets=351061
  Accumulated Data: Coeffs=2.55MB, ZMasks=2.55MB, Observables=1.37MB
  Circuit Construction: +18.80 MB (2970 circuits)
  Cumulative Circuit Memory: 294.72 MB
  Memory/Clique: 0.006 MB (prev: 0.009 MB)
  → Memory delta: CPU +18.80 MB, GPU +4.00 MB [0.6x]
Processing operator 16/645 - CPU: 553.72 MB, GPU: 38.7892 GB free
Operator 16: 11136 Pauli terms -> 3082 cliques (efficiency: 27.7%) - Memory: 32.83 MB
  STL Containers: PauliMap=27.36MB, CommOps=14.81MB, Cliques=0.23MB
  Container Overhead: PauliMap=1.0x, CommOps=19.4x
  Container Details: CommOps size=11136, capacity=215629, PauliMap size=215629, buckets=351061
  Accumulated Data: Coeffs=2.72MB, ZMasks=2.72MB, Observables=1.46MB
  Circuit Construction: +14.55 MB (3082 circuits)
  Cumulative Circuit Memory: 309.28 MB
  Memory/Clique: 0.005 MB (prev: 0.006 MB)
  → Memory delta: CPU +14.55 MB, GPU +2.00 MB [0.4x]
Processing operator 17/645 - CPU: 568.27 MB, GPU: 38.7872 GB free
Operator 17: 9384 Pauli terms -> 3050 cliques (efficiency: 32.5%) - Memory: 34.22 MB
  STL Containers: PauliMap=28.59MB, CommOps=15.55MB, Cliques=0.21MB
  Container Overhead: PauliMap=1.0x, CommOps=24.1x
  Container Details: CommOps size=9384, capacity=226440, PauliMap size=226440, buckets=351061
  Accumulated Data: Coeffs=2.43MB, ZMasks=2.43MB, Observables=1.55MB
  Circuit Construction: +20.12 MB (3050 circuits)
  Cumulative Circuit Memory: 329.40 MB
  Memory/Clique: 0.007 MB (prev: 0.005 MB)
  → Memory delta: CPU +22.64 MB, GPU +4.00 MB [0.7x]
Processing operator 18/645 - CPU: 588.62 MB, GPU: 38.7833 GB free
Operator 18: 9384 Pauli terms -> 2568 cliques (efficiency: 27.4%) - Memory: 34.03 MB
  STL Containers: PauliMap=28.50MB, CommOps=15.49MB, Cliques=0.19MB
  Container Overhead: PauliMap=1.0x, CommOps=24.0x
  Container Details: CommOps size=9384, capacity=225616, PauliMap size=225616, buckets=351061
  Accumulated Data: Coeffs=2.58MB, ZMasks=2.58MB, Observables=1.65MB
  Circuit Construction: +15.70 MB (2568 circuits)
  Cumulative Circuit Memory: 345.10 MB
  Memory/Clique: 0.006 MB (prev: 0.007 MB)
  → Memory delta: CPU +16.15 MB, GPU +2.00 MB [0.5x]
Processing operator 19/645 - CPU: 604.78 MB, GPU: 38.7814 GB free
Operator 19: 9384 Pauli terms -> 2568 cliques (efficiency: 27.4%) - Memory: 33.94 MB
  STL Containers: PauliMap=28.43MB, CommOps=15.45MB, Cliques=0.19MB
  Container Overhead: PauliMap=1.0x, CommOps=24.0x
  Container Details: CommOps size=9384, capacity=225000, PauliMap size=225000, buckets=351061
  Accumulated Data: Coeffs=2.72MB, ZMasks=2.72MB, Observables=1.73MB
  Circuit Construction: +14.25 MB (2568 circuits)
  Cumulative Circuit Memory: 359.36 MB
  Memory/Clique: 0.006 MB (prev: 0.006 MB)
  → Memory delta: CPU +14.25 MB, GPU +2.00 MB [0.4x]

--- SUMMARY: Operators 10-19 ---
  Batch Memory Growth: +181.25 MB
  Pauli Terms Generated: 104352
  Commuting Groups: 29093
  Average Efficiency: 28.0%
  Cumulative Memory: 619.03 MB
  Average Memory/Operator: 18.13 MB
  Theoretical Memory/Op: 0.59 MB (bloat factor: 30.5x)
  Memory Growth Rate: 18.1 MB/op
  Memory Bloat Factor: 30.5x
  System Memory Pressure: 10.7%
--- END SUMMARY ---

Processing operator 20/645 - CPU: 619.03 MB, GPU: 38.7794 GB free
Operator 20: 9384 Pauli terms -> 2614 cliques (efficiency: 27.9%) - Memory: 34.11 MB
  STL Containers: PauliMap=28.56MB, CommOps=15.53MB, Cliques=0.19MB
  Container Overhead: PauliMap=1.0x, CommOps=24.1x
  Container Details: CommOps size=9384, capacity=226152, PauliMap size=226152, buckets=351061
  Accumulated Data: Coeffs=2.86MB, ZMasks=2.86MB, Observables=1.80MB
  Circuit Construction: +14.73 MB (2614 circuits)
  Cumulative Circuit Memory: 374.09 MB
  Memory/Clique: 0.006 MB (prev: 0.006 MB)
  → Memory delta: CPU +16.99 MB, GPU +4.00 MB [0.5x]
Processing operator 21/645 - CPU: 636.02 MB, GPU: 38.7755 GB free
Operator 21: 9384 Pauli terms -> 2636 cliques (efficiency: 28.1%) - Memory: 34.23 MB
  STL Containers: PauliMap=28.65MB, CommOps=15.58MB, Cliques=0.19MB
  Container Overhead: PauliMap=1.0x, CommOps=24.2x
  Container Details: CommOps size=9384, capacity=226964, PauliMap size=226964, buckets=351061
  Accumulated Data: Coeffs=3.01MB, ZMasks=3.01MB, Observables=1.88MB
  Circuit Construction: +16.79 MB (2636 circuits)
  Cumulative Circuit Memory: 390.88 MB
  Memory/Clique: 0.006 MB (prev: 0.006 MB)
  → Memory delta: CPU +16.79 MB, GPU +2.00 MB [0.5x]
Processing operator 22/645 - CPU: 652.81 MB, GPU: 38.7736 GB free
Operator 22: 9384 Pauli terms -> 2731 cliques (efficiency: 29.1%) - Memory: 34.08 MB
  STL Containers: PauliMap=28.52MB, CommOps=15.50MB, Cliques=0.20MB
  Container Overhead: PauliMap=1.0x, CommOps=24.1x
  Container Details: CommOps size=9384, capacity=225784, PauliMap size=225784, buckets=351061
  Accumulated Data: Coeffs=3.15MB, ZMasks=3.15MB, Observables=1.96MB
  Circuit Construction: +22.09 MB (2731 circuits)
  Cumulative Circuit Memory: 412.97 MB
  Memory/Clique: 0.008 MB (prev: 0.006 MB)
  → Memory delta: CPU +22.09 MB, GPU +2.00 MB [0.6x]
Processing operator 23/645 - CPU: 674.90 MB, GPU: 38.7716 GB free
Operator 23: 3912 Pauli terms -> 1117 cliques (efficiency: 28.6%) - Memory: 33.88 MB
  STL Containers: PauliMap=28.99MB, CommOps=15.78MB, Cliques=0.08MB
  Container Overhead: PauliMap=1.0x, CommOps=58.8x
  Container Details: CommOps size=3912, capacity=229873, PauliMap size=229873, buckets=351061
  Accumulated Data: Coeffs=1.37MB, ZMasks=1.37MB, Observables=2.05MB
  Circuit Construction: +4.00 MB (1117 circuits)
  Cumulative Circuit Memory: 416.97 MB
  Memory/Clique: 0.004 MB (prev: 0.008 MB)
  → Memory delta: CPU +4.24 MB, GPU +2.00 MB [0.1x]
Processing operator 24/645 - CPU: 679.01 MB, GPU: 38.7697 GB free
Operator 24: 11136 Pauli terms -> 2998 cliques (efficiency: 26.9%) - Memory: 32.67 MB
  STL Containers: PauliMap=27.24MB, CommOps=14.73MB, Cliques=0.22MB
  Container Overhead: PauliMap=1.0x, CommOps=19.3x
  Container Details: CommOps size=11136, capacity=214581, PauliMap size=214581, buckets=351061
  Accumulated Data: Coeffs=4.08MB, ZMasks=4.08MB, Observables=2.08MB
  Circuit Construction: +28.61 MB (2998 circuits)
  Cumulative Circuit Memory: 445.58 MB
  Memory/Clique: 0.010 MB (prev: 0.004 MB)
  → Memory delta: CPU +30.61 MB, GPU +2.00 MB [0.9x]
Processing operator 25/645 - CPU: 709.62 MB, GPU: 38.7677 GB free
Operator 25: 11136 Pauli terms -> 2865 cliques (efficiency: 25.7%) - Memory: 32.60 MB
  STL Containers: PauliMap=27.20MB, CommOps=14.71MB, Cliques=0.22MB
  Container Overhead: PauliMap=1.0x, CommOps=19.2x
  Container Details: CommOps size=11136, capacity=214285, PauliMap size=214285, buckets=351061
  Accumulated Data: Coeffs=4.25MB, ZMasks=4.25MB, Observables=2.17MB
  Circuit Construction: +10.00 MB (2865 circuits)
  Cumulative Circuit Memory: 455.58 MB
  Memory/Clique: 0.003 MB (prev: 0.010 MB)
  → Memory delta: CPU +10.00 MB, GPU +4.00 MB [0.3x]
Processing operator 26/645 - CPU: 719.62 MB, GPU: 38.7638 GB free
Operator 26: 11136 Pauli terms -> 2936 cliques (efficiency: 26.4%) - Memory: 32.76 MB
  STL Containers: PauliMap=27.31MB, CommOps=14.78MB, Cliques=0.22MB
  Container Overhead: PauliMap=1.0x, CommOps=19.3x
  Container Details: CommOps size=11136, capacity=215253, PauliMap size=215253, buckets=351061
  Accumulated Data: Coeffs=4.42MB, ZMasks=4.42MB, Observables=2.26MB
  Circuit Construction: +13.82 MB (2936 circuits)
  Cumulative Circuit Memory: 469.39 MB
  Memory/Clique: 0.005 MB (prev: 0.003 MB)
  → Memory delta: CPU +13.82 MB, GPU +2.00 MB [0.4x]
Processing operator 27/645 - CPU: 733.43 MB, GPU: 38.7618 GB free
Operator 27: 11136 Pauli terms -> 2984 cliques (efficiency: 26.8%) - Memory: 32.87 MB
  STL Containers: PauliMap=27.40MB, CommOps=14.83MB, Cliques=0.22MB
  Container Overhead: PauliMap=1.0x, CommOps=19.4x
  Container Details: CommOps size=11136, capacity=216005, PauliMap size=216005, buckets=351061
  Accumulated Data: Coeffs=4.59MB, ZMasks=4.59MB, Observables=2.35MB
  Circuit Construction: +17.53 MB (2984 circuits)
  Cumulative Circuit Memory: 486.93 MB
  Memory/Clique: 0.006 MB (prev: 0.005 MB)
  → Memory delta: CPU +19.77 MB, GPU +4.00 MB [0.6x]
Processing operator 28/645 - CPU: 753.20 MB, GPU: 38.7579 GB free
Operator 28: 11136 Pauli terms -> 3063 cliques (efficiency: 27.5%) - Memory: 32.71 MB
  STL Containers: PauliMap=27.26MB, CommOps=14.75MB, Cliques=0.23MB
  Container Overhead: PauliMap=1.0x, CommOps=19.3x
  Container Details: CommOps size=11136, capacity=214813, PauliMap size=214813, buckets=351061
  Accumulated Data: Coeffs=4.76MB, ZMasks=4.76MB, Observables=2.44MB
  Circuit Construction: +19.04 MB (3063 circuits)
  Cumulative Circuit Memory: 505.96 MB
  Memory/Clique: 0.006 MB (prev: 0.006 MB)
  → Memory delta: CPU +19.04 MB, GPU +2.00 MB [0.6x]
Processing operator 29/645 - CPU: 772.24 MB, GPU: 38.7560 GB free
Operator 29: 9384 Pauli terms -> 2983 cliques (efficiency: 31.8%) - Memory: 34.08 MB
  STL Containers: PauliMap=28.49MB, CommOps=15.49MB, Cliques=0.21MB
  Container Overhead: PauliMap=1.0x, CommOps=24.0x
  Container Details: CommOps size=9384, capacity=225528, PauliMap size=225528, buckets=351061
  Accumulated Data: Coeffs=4.15MB, ZMasks=4.15MB, Observables=2.53MB
  Circuit Construction: +20.58 MB (2983 circuits)
  Cumulative Circuit Memory: 526.54 MB
  Memory/Clique: 0.007 MB (prev: 0.006 MB)
  → Memory delta: CPU +21.18 MB, GPU +4.00 MB [0.6x]

--- SUMMARY: Operators 20-29 ---
  Batch Memory Growth: +174.39 MB
  Pauli Terms Generated: 97128
  Commuting Groups: 26927
  Average Efficiency: 27.9%
  Cumulative Memory: 793.43 MB
  Average Memory/Operator: 17.44 MB
  Theoretical Memory/Op: 0.55 MB (bloat factor: 31.7x)
  Memory Growth Rate: 17.4 MB/op
  Memory Bloat Factor: 31.7x
  System Memory Pressure: 10.7%
--- END SUMMARY ---

Processing operator 30/645 - CPU: 793.43 MB, GPU: 38.7521 GB free
Operator 30: 76160 Pauli terms -> 25523 cliques (efficiency: 33.5%) - Memory: 117.60 MB
  STL Containers: PauliMap=94.84MB, CommOps=50.28MB, Cliques=1.75MB
  Container Overhead: PauliMap=1.0x, CommOps=9.6x
  Container Details: CommOps size=76160, capacity=732287, PauliMap size=732287, buckets=1447153
  Accumulated Data: Coeffs=34.86MB, ZMasks=34.86MB, Observables=2.63MB
  Circuit Construction: +165.43 MB (25523 circuits)
  Cumulative Circuit Memory: 691.98 MB
  Memory/Clique: 0.006 MB (prev: 0.007 MB)
  → Memory delta: CPU +224.17 MB, GPU +26.00 MB [1.9x]
Processing operator 31/645 - CPU: 1011.11 MB, GPU: 38.7267 GB free
Operator 31: 76160 Pauli terms -> 22302 cliques (efficiency: 29.3%) - Memory: 117.14 MB
  STL Containers: PauliMap=94.87MB, CommOps=50.30MB, Cliques=1.60MB
  Container Overhead: PauliMap=1.0x, CommOps=9.6x
  Container Details: CommOps size=76160, capacity=732511, PauliMap size=732511, buckets=1447153
  Accumulated Data: Coeffs=36.03MB, ZMasks=36.03MB, Observables=3.40MB
  Circuit Construction: +138.00 MB (22302 circuits)
  Cumulative Circuit Memory: 829.98 MB
  Memory/Clique: 0.006 MB (prev: 0.006 MB)
  → Memory delta: CPU +155.81 MB, GPU +22.00 MB [1.3x]
Processing operator 32/645 - CPU: 1160.39 MB, GPU: 38.7052 GB free
Operator 32: 76160 Pauli terms -> 22065 cliques (efficiency: 29.0%) - Memory: 117.38 MB
  STL Containers: PauliMap=95.09MB, CommOps=50.43MB, Cliques=1.59MB
  Container Overhead: PauliMap=1.0x, CommOps=9.6x
  Container Details: CommOps size=76160, capacity=734399, PauliMap size=734399, buckets=1447153
  Accumulated Data: Coeffs=37.19MB, ZMasks=37.19MB, Observables=4.09MB
  Circuit Construction: +138.59 MB (22065 circuits)
  Cumulative Circuit Memory: 968.56 MB
  Memory/Clique: 0.006 MB (prev: 0.006 MB)
  → Memory delta: CPU +156.27 MB, GPU +22.00 MB [1.3x]
Processing operator 33/645 - CPU: 1310.14 MB, GPU: 38.6837 GB free
Operator 33: 76160 Pauli terms -> 24145 cliques (efficiency: 31.7%) - Memory: 117.42 MB
  STL Containers: PauliMap=94.87MB, CommOps=50.30MB, Cliques=1.69MB
  Container Overhead: PauliMap=1.0x, CommOps=9.6x
  Container Details: CommOps size=76160, capacity=732507, PauliMap size=732507, buckets=1447153
  Accumulated Data: Coeffs=38.35MB, ZMasks=38.35MB, Observables=4.76MB
  Circuit Construction: +153.08 MB (24145 circuits)
  Cumulative Circuit Memory: 1121.64 MB
  Memory/Clique: 0.006 MB (prev: 0.006 MB)
  → Memory delta: CPU +170.60 MB, GPU +24.00 MB [1.5x]
Processing operator 34/645 - CPU: 1474.38 MB, GPU: 38.6603 GB free
Operator 34: 73904 Pauli terms -> 26723 cliques (efficiency: 36.2%) - Memory: 121.38 MB
  STL Containers: PauliMap=97.86MB, CommOps=52.09MB, Cliques=1.79MB
  Container Overhead: PauliMap=1.0x, CommOps=10.3x
  Container Details: CommOps size=73904, capacity=758656, PauliMap size=758656, buckets=1447153
  Accumulated Data: Coeffs=38.34MB, ZMasks=38.34MB, Observables=5.50MB
  Circuit Construction: +172.51 MB (26723 circuits)
  Cumulative Circuit Memory: 1294.15 MB
  Memory/Clique: 0.006 MB (prev: 0.006 MB)
  → Memory delta: CPU +189.85 MB, GPU +28.00 MB [1.6x]
Processing operator 35/645 - CPU: 1658.05 MB, GPU: 38.6329 GB free
Operator 35: 76160 Pauli terms -> 24194 cliques (efficiency: 31.8%) - Memory: 117.84 MB
  STL Containers: PauliMap=95.20MB, CommOps=50.49MB, Cliques=1.69MB
  Container Overhead: PauliMap=1.0x, CommOps=9.7x
  Container Details: CommOps size=76160, capacity=735359, PauliMap size=735359, buckets=1447153
  Accumulated Data: Coeffs=40.67MB, ZMasks=40.67MB, Observables=6.31MB
  Circuit Construction: +157.46 MB (24194 circuits)
  Cumulative Circuit Memory: 1451.61 MB
  Memory/Clique: 0.007 MB (prev: 0.006 MB)
  → Memory delta: CPU +164.17 MB, GPU +24.00 MB [1.4x]
Processing operator 36/645 - CPU: 1815.68 MB, GPU: 38.6095 GB free
Operator 36: 76160 Pauli terms -> 21274 cliques (efficiency: 27.9%) - Memory: 117.69 MB
  STL Containers: PauliMap=95.43MB, CommOps=50.63MB, Cliques=1.55MB
  Container Overhead: PauliMap=1.0x, CommOps=9.7x
  Container Details: CommOps size=76160, capacity=737371, PauliMap size=737371, buckets=1447153
  Accumulated Data: Coeffs=41.84MB, ZMasks=41.84MB, Observables=7.05MB
  Circuit Construction: +133.04 MB (21274 circuits)
  Cumulative Circuit Memory: 1584.64 MB
  Memory/Clique: 0.006 MB (prev: 0.007 MB)
  → Memory delta: CPU +150.93 MB, GPU +22.00 MB [1.3x]
Processing operator 37/645 - CPU: 1959.86 MB, GPU: 38.5880 GB free
Operator 37: 76160 Pauli terms -> 21420 cliques (efficiency: 28.1%) - Memory: 117.92 MB
  STL Containers: PauliMap=95.59MB, CommOps=50.73MB, Cliques=1.56MB
  Container Overhead: PauliMap=1.0x, CommOps=9.7x
  Container Details: CommOps size=76160, capacity=738815, PauliMap size=738815, buckets=1447153
  Accumulated Data: Coeffs=43.00MB, ZMasks=43.00MB, Observables=7.70MB
  Circuit Construction: +135.38 MB (21420 circuits)
  Cumulative Circuit Memory: 1720.02 MB
  Memory/Clique: 0.006 MB (prev: 0.006 MB)
  → Memory delta: CPU +153.36 MB, GPU +20.00 MB [1.3x]
Processing operator 38/645 - CPU: 2106.36 MB, GPU: 38.5685 GB free
Operator 38: 76160 Pauli terms -> 23402 cliques (efficiency: 30.7%) - Memory: 117.82 MB
  STL Containers: PauliMap=95.27MB, CommOps=50.54MB, Cliques=1.65MB
  Container Overhead: PauliMap=1.0x, CommOps=9.7x
  Container Details: CommOps size=76160, capacity=736031, PauliMap size=736031, buckets=1447153
  Accumulated Data: Coeffs=44.16MB, ZMasks=44.16MB, Observables=8.35MB
  Circuit Construction: +147.41 MB (23402 circuits)
  Cumulative Circuit Memory: 1867.43 MB
  Memory/Clique: 0.006 MB (prev: 0.006 MB)
  → Memory delta: CPU +165.20 MB, GPU +24.00 MB [1.4x]
Processing operator 39/645 - CPU: 2264.84 MB, GPU: 38.5450 GB free
Operator 39: 73904 Pauli terms -> 25695 cliques (efficiency: 34.8%) - Memory: 121.93 MB
  STL Containers: PauliMap=98.42MB, CommOps=52.43MB, Cliques=1.74MB
  Container Overhead: PauliMap=1.0x, CommOps=10.3x
  Container Details: CommOps size=73904, capacity=763520, PauliMap size=763520, buckets=1447153
  Accumulated Data: Coeffs=43.98MB, ZMasks=43.98MB, Observables=9.07MB
  Circuit Construction: +165.33 MB (25695 circuits)
  Cumulative Circuit Memory: 2032.76 MB
  Memory/Clique: 0.006 MB (prev: 0.006 MB)
  → Memory delta: CPU +183.01 MB, GPU +26.00 MB [1.5x]

--- SUMMARY: Operators 30-39 ---
  Batch Memory Growth: +1654.42 MB
  Pauli Terms Generated: 757088
  Commuting Groups: 236743
  Average Efficiency: 31.3%
  Cumulative Memory: 2447.85 MB
  Average Memory/Operator: 165.44 MB
  Theoretical Memory/Op: 4.62 MB (bloat factor: 35.8x)
  Memory Growth Rate: 165.4 MB/op
  Memory Bloat Factor: 35.8x
  System Memory Pressure: 11.4%
--- END SUMMARY ---

Processing operator 40/645 - CPU: 2441.38 MB, GPU: 38.5197 GB free
Operator 40: 73904 Pauli terms -> 23356 cliques (efficiency: 31.6%) - Memory: 121.08 MB
  STL Containers: PauliMap=98.03MB, CommOps=52.19MB, Cliques=1.63MB
  Container Overhead: PauliMap=1.0x, CommOps=10.3x
  Container Details: CommOps size=73904, capacity=760128, PauliMap size=760128, buckets=1447153
  Accumulated Data: Coeffs=45.11MB, ZMasks=45.11MB, Observables=9.85MB
  Circuit Construction: +146.08 MB (23356 circuits)
  Cumulative Circuit Memory: 2178.84 MB
  Memory/Clique: 0.006 MB (prev: 0.006 MB)
  → Memory delta: CPU +163.52 MB, GPU +24.00 MB [1.4x]
Processing operator 41/645 - CPU: 2598.52 MB, GPU: 38.4962 GB free
Operator 41: 73904 Pauli terms -> 21214 cliques (efficiency: 28.7%) - Memory: 121.02 MB
  STL Containers: PauliMap=98.24MB, CommOps=52.32MB, Cliques=1.53MB
  Container Overhead: PauliMap=1.0x, CommOps=10.3x
  Container Details: CommOps size=73904, capacity=761984, PauliMap size=761984, buckets=1447153
  Accumulated Data: Coeffs=46.24MB, ZMasks=46.24MB, Observables=10.56MB
  Circuit Construction: +133.33 MB (21214 circuits)
  Cumulative Circuit Memory: 2312.16 MB
  Memory/Clique: 0.006 MB (prev: 0.006 MB)
  → Memory delta: CPU +150.91 MB, GPU +22.00 MB [1.2x]
Processing operator 42/645 - CPU: 2743.11 MB, GPU: 38.4747 GB free
Operator 42: 73904 Pauli terms -> 21511 cliques (efficiency: 29.1%) - Memory: 121.34 MB
  STL Containers: PauliMap=98.46MB, CommOps=52.45MB, Cliques=1.55MB
  Container Overhead: PauliMap=1.0x, CommOps=10.3x
  Container Details: CommOps size=73904, capacity=763840, PauliMap size=763840, buckets=1447153
  Accumulated Data: Coeffs=47.36MB, ZMasks=47.36MB, Observables=11.21MB
  Circuit Construction: +136.91 MB (21511 circuits)
  Cumulative Circuit Memory: 2449.07 MB
  Memory/Clique: 0.006 MB (prev: 0.006 MB)
  → Memory delta: CPU +154.50 MB, GPU +20.00 MB [1.3x]
Processing operator 43/645 - CPU: 2891.14 MB, GPU: 38.4552 GB free
Operator 43: 73904 Pauli terms -> 22769 cliques (efficiency: 30.8%) - Memory: 120.96 MB
  STL Containers: PauliMap=98.01MB, CommOps=52.18MB, Cliques=1.61MB
  Container Overhead: PauliMap=1.0x, CommOps=10.3x
  Container Details: CommOps size=73904, capacity=759936, PauliMap size=759936, buckets=1447153
  Accumulated Data: Coeffs=48.49MB, ZMasks=48.49MB, Observables=11.87MB
  Circuit Construction: +145.58 MB (22769 circuits)
  Cumulative Circuit Memory: 2594.65 MB
  Memory/Clique: 0.006 MB (prev: 0.006 MB)
  → Memory delta: CPU +162.84 MB, GPU +24.00 MB [1.3x]
Processing operator 44/645 - CPU: 3047.79 MB, GPU: 38.4318 GB free
Operator 44: 65600 Pauli terms -> 22835 cliques (efficiency: 34.8%) - Memory: 124.87 MB
  STL Containers: PauliMap=101.73MB, CommOps=54.42MB, Cliques=1.55MB
  Container Overhead: PauliMap=1.0x, CommOps=12.1x
  Container Details: CommOps size=65600, capacity=792479, PauliMap size=792479, buckets=1447153
  Accumulated Data: Coeffs=44.04MB, ZMasks=44.04MB, Observables=12.56MB
  Circuit Construction: +146.49 MB (22835 circuits)
  Cumulative Circuit Memory: 2741.14 MB
  Memory/Clique: 0.006 MB (prev: 0.006 MB)
  → Memory delta: CPU +162.15 MB, GPU +22.00 MB [1.3x]
Processing operator 45/645 - CPU: 3205.49 MB, GPU: 38.4103 GB free
Operator 45: 76160 Pauli terms -> 24445 cliques (efficiency: 32.1%) - Memory: 117.28 MB
  STL Containers: PauliMap=94.73MB, CommOps=50.21MB, Cliques=1.70MB
  Container Overhead: PauliMap=1.0x, CommOps=9.6x
  Container Details: CommOps size=76160, capacity=731247, PauliMap size=731247, buckets=1447153
  Accumulated Data: Coeffs=52.29MB, ZMasks=52.29MB, Observables=13.26MB
  Circuit Construction: +142.34 MB (24445 circuits)
  Cumulative Circuit Memory: 2883.48 MB
  Memory/Clique: 0.006 MB (prev: 0.006 MB)
  → Memory delta: CPU +159.67 MB, GPU +26.00 MB [1.4x]
Processing operator 46/645 - CPU: 3358.86 MB, GPU: 38.3849 GB free
Operator 46: 76160 Pauli terms -> 21098 cliques (efficiency: 27.7%) - Memory: 116.90 MB
  STL Containers: PauliMap=94.83MB, CommOps=50.27MB, Cliques=1.55MB
  Container Overhead: PauliMap=1.0x, CommOps=9.6x
  Container Details: CommOps size=76160, capacity=732127, PauliMap size=732127, buckets=1447153
  Accumulated Data: Coeffs=53.46MB, ZMasks=53.46MB, Observables=14.01MB
  Circuit Construction: +133.79 MB (21098 circuits)
  Cumulative Circuit Memory: 3017.27 MB
  Memory/Clique: 0.006 MB (prev: 0.006 MB)
  → Memory delta: CPU +151.16 MB, GPU +20.00 MB [1.3x]
Processing operator 47/645 - CPU: 3503.53 MB, GPU: 38.3654 GB free
Operator 47: 76160 Pauli terms -> 21266 cliques (efficiency: 27.9%) - Memory: 117.33 MB
  STL Containers: PauliMap=95.14MB, CommOps=50.46MB, Cliques=1.55MB
  Container Overhead: PauliMap=1.0x, CommOps=9.6x
  Container Details: CommOps size=76160, capacity=734879, PauliMap size=734879, buckets=1447153
  Accumulated Data: Coeffs=54.62MB, ZMasks=54.62MB, Observables=14.65MB
  Circuit Construction: +132.28 MB (21266 circuits)
  Cumulative Circuit Memory: 3149.55 MB
  Memory/Clique: 0.006 MB (prev: 0.006 MB)
  → Memory delta: CPU +146.91 MB, GPU +22.00 MB [1.3x]
Processing operator 48/645 - CPU: 3643.86 MB, GPU: 38.3439 GB free
Operator 48: 76160 Pauli terms -> 23097 cliques (efficiency: 30.3%) - Memory: 117.06 MB
  STL Containers: PauliMap=94.71MB, CommOps=50.20MB, Cliques=1.64MB
  Container Overhead: PauliMap=1.0x, CommOps=9.6x
  Container Details: CommOps size=76160, capacity=731135, PauliMap size=731135, buckets=1447153
  Accumulated Data: Coeffs=55.78MB, ZMasks=55.78MB, Observables=15.30MB
  Circuit Construction: +142.60 MB (23097 circuits)
  Cumulative Circuit Memory: 3292.15 MB
  Memory/Clique: 0.006 MB (prev: 0.006 MB)
  → Memory delta: CPU +160.05 MB, GPU +24.00 MB [1.4x]
Processing operator 49/645 - CPU: 3797.62 MB, GPU: 38.3204 GB free
Operator 49: 73904 Pauli terms -> 26141 cliques (efficiency: 35.4%) - Memory: 121.25 MB
  STL Containers: PauliMap=97.83MB, CommOps=52.07MB, Cliques=1.76MB
  Container Overhead: PauliMap=1.0x, CommOps=10.3x
  Container Details: CommOps size=73904, capacity=758336, PauliMap size=758336, buckets=1447153
  Accumulated Data: Coeffs=55.26MB, ZMasks=55.26MB, Observables=16.00MB
  Circuit Construction: +167.54 MB (26141 circuits)
  Cumulative Circuit Memory: 3459.70 MB
  Memory/Clique: 0.006 MB (prev: 0.006 MB)
  → Memory delta: CPU +184.79 MB, GPU +26.00 MB [1.5x]

--- SUMMARY: Operators 40-49 ---
  Batch Memory Growth: +1534.56 MB
  Pauli Terms Generated: 739760
  Commuting Groups: 227732
  Average Efficiency: 30.8%
  Cumulative Memory: 3982.41 MB
  Average Memory/Operator: 153.46 MB
  Theoretical Memory/Op: 4.47 MB (bloat factor: 34.3x)
  Memory Growth Rate: 153.5 MB/op
  Memory Bloat Factor: 34.3x
  System Memory Pressure: 11.9%
--- END SUMMARY ---

Processing operator 50/645 - CPU: 3976.29 MB, GPU: 38.2950 GB free
Operator 50: 76160 Pauli terms -> 24760 cliques (efficiency: 32.5%) - Memory: 117.60 MB
  STL Containers: PauliMap=94.94MB, CommOps=50.34MB, Cliques=1.71MB
  Container Overhead: PauliMap=1.0x, CommOps=9.6x
  Container Details: CommOps size=76160, capacity=733083, PauliMap size=733083, buckets=1447153
  Accumulated Data: Coeffs=58.11MB, ZMasks=58.11MB, Observables=16.80MB
  Circuit Construction: +150.63 MB (24760 circuits)
  Cumulative Circuit Memory: 3610.33 MB
  Memory/Clique: 0.006 MB (prev: 0.006 MB)
  → Memory delta: CPU +168.19 MB, GPU +24.00 MB [1.4x]
Processing operator 51/645 - CPU: 4138.16 MB, GPU: 38.2716 GB free
Operator 51: 76160 Pauli terms -> 22307 cliques (efficiency: 29.3%) - Memory: 117.64 MB
  STL Containers: PauliMap=95.27MB, CommOps=50.53MB, Cliques=1.60MB
  Container Overhead: PauliMap=1.0x, CommOps=9.7x
  Container Details: CommOps size=76160, capacity=735967, PauliMap size=735967, buckets=1447153
  Accumulated Data: Coeffs=59.27MB, ZMasks=59.27MB, Observables=17.56MB
  Circuit Construction: +149.79 MB (22307 circuits)
  Cumulative Circuit Memory: 3760.12 MB
  Memory/Clique: 0.007 MB (prev: 0.006 MB)
  → Memory delta: CPU +167.58 MB, GPU +24.00 MB [1.4x]
Processing operator 52/645 - CPU: 4298.98 MB, GPU: 38.2482 GB free
Operator 52: 76160 Pauli terms -> 24143 cliques (efficiency: 31.7%) - Memory: 117.28 MB
  STL Containers: PauliMap=94.76MB, CommOps=50.23MB, Cliques=1.69MB
  Container Overhead: PauliMap=1.0x, CommOps=9.6x
  Container Details: CommOps size=76160, capacity=731551, PauliMap size=731551, buckets=1447153
  Accumulated Data: Coeffs=60.43MB, ZMasks=60.43MB, Observables=18.24MB
  Circuit Construction: +152.22 MB (24143 circuits)
  Cumulative Circuit Memory: 3912.34 MB
  Memory/Clique: 0.006 MB (prev: 0.007 MB)
  → Memory delta: CPU +160.67 MB, GPU +24.00 MB [1.4x]
Processing operator 53/645 - CPU: 4453.38 MB, GPU: 38.2247 GB free
Operator 53: 73904 Pauli terms -> 26666 cliques (efficiency: 36.1%) - Memory: 121.49 MB
  STL Containers: PauliMap=97.96MB, CommOps=52.15MB, Cliques=1.78MB
  Container Overhead: PauliMap=1.0x, CommOps=10.3x
  Container Details: CommOps size=73904, capacity=759488, PauliMap size=759488, buckets=1447153
  Accumulated Data: Coeffs=59.77MB, ZMasks=59.77MB, Observables=18.97MB
  Circuit Construction: +171.55 MB (26666 circuits)
  Cumulative Circuit Memory: 4083.89 MB
  Memory/Clique: 0.006 MB (prev: 0.006 MB)
  → Memory delta: CPU +188.96 MB, GPU +26.00 MB [1.6x]
Processing operator 54/645 - CPU: 4636.09 MB, GPU: 38.1993 GB free
Operator 54: 76160 Pauli terms -> 23363 cliques (efficiency: 30.7%) - Memory: 117.89 MB
  STL Containers: PauliMap=95.34MB, CommOps=50.58MB, Cliques=1.65MB
  Container Overhead: PauliMap=1.0x, CommOps=9.7x
  Container Details: CommOps size=76160, capacity=736575, PauliMap size=736575, buckets=1447153
  Accumulated Data: Coeffs=62.75MB, ZMasks=62.75MB, Observables=19.79MB
  Circuit Construction: +148.20 MB (23363 circuits)
  Cumulative Circuit Memory: 4232.09 MB
  Memory/Clique: 0.006 MB (prev: 0.006 MB)
  → Memory delta: CPU +166.03 MB, GPU +24.00 MB [1.4x]
Processing operator 55/645 - CPU: 4795.32 MB, GPU: 38.1759 GB free
Operator 55: 76160 Pauli terms -> 21682 cliques (efficiency: 28.5%) - Memory: 117.94 MB
  STL Containers: PauliMap=95.57MB, CommOps=50.72MB, Cliques=1.57MB
  Container Overhead: PauliMap=1.0x, CommOps=9.7x
  Container Details: CommOps size=76160, capacity=738655, PauliMap size=738655, buckets=1447153
  Accumulated Data: Coeffs=63.92MB, ZMasks=63.92MB, Observables=20.50MB
  Circuit Construction: +136.33 MB (21682 circuits)
  Cumulative Circuit Memory: 4368.43 MB
  Memory/Clique: 0.006 MB (prev: 0.006 MB)
  → Memory delta: CPU +149.66 MB, GPU +22.00 MB [1.3x]
Processing operator 56/645 - CPU: 4938.18 MB, GPU: 38.1544 GB free
Operator 56: 76160 Pauli terms -> 23478 cliques (efficiency: 30.8%) - Memory: 117.48 MB
  STL Containers: PauliMap=95.00MB, CommOps=50.37MB, Cliques=1.66MB
  Container Overhead: PauliMap=1.0x, CommOps=9.6x
  Container Details: CommOps size=76160, capacity=733631, PauliMap size=733631, buckets=1447153
  Accumulated Data: Coeffs=65.08MB, ZMasks=65.08MB, Observables=21.16MB
  Circuit Construction: +146.60 MB (23478 circuits)
  Cumulative Circuit Memory: 4515.02 MB
  Memory/Clique: 0.006 MB (prev: 0.006 MB)
  → Memory delta: CPU +164.19 MB, GPU +24.00 MB [1.4x]
Processing operator 57/645 - CPU: 5096.01 MB, GPU: 38.1310 GB free
Operator 57: 73904 Pauli terms -> 25725 cliques (efficiency: 34.8%) - Memory: 121.79 MB
  STL Containers: PauliMap=98.31MB, CommOps=52.36MB, Cliques=1.74MB
  Container Overhead: PauliMap=1.0x, CommOps=10.3x
  Container Details: CommOps size=73904, capacity=762560, PauliMap size=762560, buckets=1447153
  Accumulated Data: Coeffs=64.28MB, ZMasks=64.28MB, Observables=21.88MB
  Circuit Construction: +165.44 MB (25725 circuits)
  Cumulative Circuit Memory: 4680.46 MB
  Memory/Clique: 0.006 MB (prev: 0.006 MB)
  → Memory delta: CPU +182.96 MB, GPU +26.00 MB [1.5x]
Processing operator 58/645 - CPU: 5272.53 MB, GPU: 38.1056 GB free
Operator 58: 73904 Pauli terms -> 22414 cliques (efficiency: 30.3%) - Memory: 121.20 MB
  STL Containers: PauliMap=98.24MB, CommOps=52.32MB, Cliques=1.59MB
  Container Overhead: PauliMap=1.0x, CommOps=10.3x
  Container Details: CommOps size=73904, capacity=761920, PauliMap size=761920, buckets=1447153
  Accumulated Data: Coeffs=65.41MB, ZMasks=65.41MB, Observables=22.66MB
  Circuit Construction: +142.01 MB (22414 circuits)
  Cumulative Circuit Memory: 4822.47 MB
  Memory/Clique: 0.006 MB (prev: 0.006 MB)
  → Memory delta: CPU +159.54 MB, GPU +22.00 MB [1.3x]
Processing operator 59/645 - CPU: 5425.54 MB, GPU: 38.0841 GB free
Operator 59: 73904 Pauli terms -> 22036 cliques (efficiency: 29.8%) - Memory: 121.54 MB
  STL Containers: PauliMap=98.55MB, CommOps=52.51MB, Cliques=1.57MB
  Container Overhead: PauliMap=1.0x, CommOps=10.3x
  Container Details: CommOps size=73904, capacity=764672, PauliMap size=764672, buckets=1447153
  Accumulated Data: Coeffs=66.53MB, ZMasks=66.53MB, Observables=23.35MB
  Circuit Construction: +139.20 MB (22036 circuits)
  Cumulative Circuit Memory: 4961.67 MB
  Memory/Clique: 0.006 MB (prev: 0.006 MB)
  → Memory delta: CPU +156.79 MB, GPU +22.00 MB [1.3x]

--- SUMMARY: Operators 50-59 ---
  Batch Memory Growth: +1599.92 MB
  Pauli Terms Generated: 752576
  Commuting Groups: 236574
  Average Efficiency: 31.5%
  Cumulative Memory: 5582.32 MB
  Average Memory/Operator: 159.99 MB
  Theoretical Memory/Op: 4.61 MB (bloat factor: 34.7x)
  Memory Growth Rate: 160.0 MB/op
  Memory Bloat Factor: 34.7x
  System Memory Pressure: 12.6%
--- END SUMMARY ---

Processing operator 60/645 - CPU: 5575.64 MB, GPU: 38.0626 GB free
Operator 60: 73904 Pauli terms -> 23158 cliques (efficiency: 31.3%) - Memory: 120.82 MB
  STL Containers: PauliMap=97.85MB, CommOps=52.09MB, Cliques=1.62MB
  Container Overhead: PauliMap=1.0x, CommOps=10.3x
  Container Details: CommOps size=73904, capacity=758560, PauliMap size=758560, buckets=1447153
  Accumulated Data: Coeffs=67.66MB, ZMasks=67.66MB, Observables=24.02MB
  Circuit Construction: +145.68 MB (23158 circuits)
  Cumulative Circuit Memory: 5107.36 MB
  Memory/Clique: 0.006 MB (prev: 0.006 MB)
  → Memory delta: CPU +162.95 MB, GPU +24.00 MB [1.3x]
Processing operator 61/645 - CPU: 5732.52 MB, GPU: 38.0392 GB free
Operator 61: 65600 Pauli terms -> 22164 cliques (efficiency: 33.8%) - Memory: 124.74 MB
  STL Containers: PauliMap=101.71MB, CommOps=54.40MB, Cliques=1.52MB
  Container Overhead: PauliMap=1.0x, CommOps=12.1x
  Container Details: CommOps size=65600, capacity=792319, PauliMap size=792319, buckets=1447153
  Accumulated Data: Coeffs=61.06MB, ZMasks=61.06MB, Observables=24.73MB
  Circuit Construction: +149.58 MB (22164 circuits)
  Cumulative Circuit Memory: 5256.93 MB
  Memory/Clique: 0.007 MB (prev: 0.006 MB)
  → Memory delta: CPU +165.10 MB, GPU +22.00 MB [1.3x]
Processing operator 62/645 - CPU: 5892.99 MB, GPU: 38.0177 GB free
Operator 62: 76160 Pauli terms -> 22406 cliques (efficiency: 29.4%) - Memory: 117.36 MB
  STL Containers: PauliMap=95.03MB, CommOps=50.39MB, Cliques=1.61MB
  Container Overhead: PauliMap=1.0x, CommOps=9.6x
  Container Details: CommOps size=76160, capacity=733883, PauliMap size=733883, buckets=1447153
  Accumulated Data: Coeffs=72.05MB, ZMasks=72.05MB, Observables=25.40MB
  Circuit Construction: +133.83 MB (22406 circuits)
  Cumulative Circuit Memory: 5390.76 MB
  Memory/Clique: 0.006 MB (prev: 0.007 MB)
  → Memory delta: CPU +144.59 MB, GPU +22.00 MB [1.2x]
Processing operator 63/645 - CPU: 6031.09 MB, GPU: 37.9962 GB free
Operator 63: 76160 Pauli terms -> 21029 cliques (efficiency: 27.6%) - Memory: 117.68 MB
  STL Containers: PauliMap=95.45MB, CommOps=50.64MB, Cliques=1.54MB
  Container Overhead: PauliMap=1.0x, CommOps=9.7x
  Container Details: CommOps size=76160, capacity=737567, PauliMap size=737567, buckets=1447153
  Accumulated Data: Coeffs=73.21MB, ZMasks=73.21MB, Observables=26.09MB
  Circuit Construction: +132.14 MB (21029 circuits)
  Cumulative Circuit Memory: 5522.90 MB
  Memory/Clique: 0.006 MB (prev: 0.006 MB)
  → Memory delta: CPU +149.92 MB, GPU +22.00 MB [1.3x]
Processing operator 64/645 - CPU: 6174.16 MB, GPU: 37.9747 GB free
Operator 64: 76160 Pauli terms -> 22818 cliques (efficiency: 30.0%) - Memory: 117.05 MB
  STL Containers: PauliMap=94.74MB, CommOps=50.22MB, Cliques=1.63MB
  Container Overhead: PauliMap=1.0x, CommOps=9.6x
  Container Details: CommOps size=76160, capacity=731359, PauliMap size=731359, buckets=1447153
  Accumulated Data: Coeffs=74.38MB, ZMasks=74.38MB, Observables=26.73MB
  Circuit Construction: +145.18 MB (22818 circuits)
  Cumulative Circuit Memory: 5668.09 MB
  Memory/Clique: 0.006 MB (prev: 0.006 MB)
  → Memory delta: CPU +162.45 MB, GPU +22.00 MB [1.4x]
Processing operator 65/645 - CPU: 6330.16 MB, GPU: 37.9532 GB free
Operator 65: 73904 Pauli terms -> 25486 cliques (efficiency: 34.5%) - Memory: 121.47 MB
  STL Containers: PauliMap=98.08MB, CommOps=52.22MB, Cliques=1.73MB
  Container Overhead: PauliMap=1.0x, CommOps=10.3x
  Container Details: CommOps size=73904, capacity=760544, PauliMap size=760544, buckets=1447153
  Accumulated Data: Coeffs=73.30MB, ZMasks=73.30MB, Observables=27.43MB
  Circuit Construction: +165.16 MB (25486 circuits)
  Cumulative Circuit Memory: 5833.25 MB
  Memory/Clique: 0.006 MB (prev: 0.006 MB)
  → Memory delta: CPU +180.54 MB, GPU +26.00 MB [1.5x]
Processing operator 66/645 - CPU: 6504.30 MB, GPU: 37.9279 GB free
Operator 66: 76160 Pauli terms -> 23129 cliques (efficiency: 30.4%) - Memory: 117.90 MB
  STL Containers: PauliMap=95.37MB, CommOps=50.60MB, Cliques=1.64MB
  Container Overhead: PauliMap=1.0x, CommOps=9.7x
  Container Details: CommOps size=76160, capacity=736863, PauliMap size=736863, buckets=1447153
  Accumulated Data: Coeffs=76.70MB, ZMasks=76.70MB, Observables=28.20MB
  Circuit Construction: +143.78 MB (23129 circuits)
  Cumulative Circuit Memory: 5977.03 MB
  Memory/Clique: 0.006 MB (prev: 0.006 MB)
  → Memory delta: CPU +161.56 MB, GPU +24.00 MB [1.4x]
Processing operator 67/645 - CPU: 6659.18 MB, GPU: 37.9044 GB free
Operator 67: 76160 Pauli terms -> 23147 cliques (efficiency: 30.4%) - Memory: 117.42 MB
  STL Containers: PauliMap=94.99MB, CommOps=50.37MB, Cliques=1.64MB
  Container Overhead: PauliMap=1.0x, CommOps=9.6x
  Container Details: CommOps size=76160, capacity=733535, PauliMap size=733535, buckets=1447153
  Accumulated Data: Coeffs=77.86MB, ZMasks=77.86MB, Observables=28.91MB
  Circuit Construction: +146.82 MB (23147 circuits)
  Cumulative Circuit Memory: 6123.85 MB
  Memory/Clique: 0.006 MB (prev: 0.006 MB)
  → Memory delta: CPU +164.45 MB, GPU +24.00 MB [1.4x]
Processing operator 68/645 - CPU: 6817.09 MB, GPU: 37.8810 GB free
Operator 68: 73904 Pauli terms -> 26137 cliques (efficiency: 35.4%) - Memory: 121.58 MB
  STL Containers: PauliMap=98.09MB, CommOps=52.23MB, Cliques=1.76MB
  Container Overhead: PauliMap=1.0x, CommOps=10.3x
  Container Details: CommOps size=73904, capacity=760640, PauliMap size=760640, buckets=1447153
  Accumulated Data: Coeffs=76.68MB, ZMasks=76.68MB, Observables=29.62MB
  Circuit Construction: +170.91 MB (26137 circuits)
  Cumulative Circuit Memory: 6294.76 MB
  Memory/Clique: 0.007 MB (prev: 0.006 MB)
  → Memory delta: CPU +188.39 MB, GPU +26.00 MB [1.5x]
Processing operator 69/645 - CPU: 6999.04 MB, GPU: 37.8556 GB free
Operator 69: 76160 Pauli terms -> 22498 cliques (efficiency: 29.5%) - Memory: 118.45 MB
  STL Containers: PauliMap=95.88MB, CommOps=50.90MB, Cliques=1.61MB
  Container Overhead: PauliMap=1.0x, CommOps=9.7x
  Container Details: CommOps size=76160, capacity=741307, PauliMap size=741307, buckets=1447153
  Accumulated Data: Coeffs=80.19MB, ZMasks=80.19MB, Observables=30.41MB
  Circuit Construction: +139.77 MB (22498 circuits)
  Cumulative Circuit Memory: 6434.53 MB
  Memory/Clique: 0.006 MB (prev: 0.007 MB)
  → Memory delta: CPU +157.54 MB, GPU +22.00 MB [1.3x]

--- SUMMARY: Operators 60-69 ---
  Batch Memory Growth: +1574.25 MB
  Pauli Terms Generated: 744272
  Commuting Groups: 231972
  Average Efficiency: 31.2%
  Cumulative Memory: 7156.57 MB
  Average Memory/Operator: 157.42 MB
  Theoretical Memory/Op: 4.54 MB (bloat factor: 34.7x)
  Memory Growth Rate: 157.4 MB/op
  Memory Bloat Factor: 34.7x
  System Memory Pressure: 13.2%
--- END SUMMARY ---

Processing operator 70/645 - CPU: 7149.68 MB, GPU: 37.8341 GB free
Operator 70: 76160 Pauli terms -> 23094 cliques (efficiency: 30.3%) - Memory: 117.95 MB
  STL Containers: PauliMap=95.42MB, CommOps=50.62MB, Cliques=1.64MB
  Container Overhead: PauliMap=1.0x, CommOps=9.7x
  Container Details: CommOps size=76160, capacity=737279, PauliMap size=737279, buckets=1447153
  Accumulated Data: Coeffs=81.35MB, ZMasks=81.35MB, Observables=31.10MB
  Circuit Construction: +155.44 MB (23094 circuits)
  Cumulative Circuit Memory: 6589.96 MB
  Memory/Clique: 0.007 MB (prev: 0.006 MB)
  → Memory delta: CPU +173.31 MB, GPU +24.00 MB [1.5x]
Processing operator 71/645 - CPU: 7316.15 MB, GPU: 37.8107 GB free
Operator 71: 73904 Pauli terms -> 25322 cliques (efficiency: 34.3%) - Memory: 122.15 MB
  STL Containers: PauliMap=98.64MB, CommOps=52.56MB, Cliques=1.72MB
  Container Overhead: PauliMap=1.0x, CommOps=10.4x
  Container Details: CommOps size=73904, capacity=765440, PauliMap size=765440, buckets=1447153
  Accumulated Data: Coeffs=80.07MB, ZMasks=80.07MB, Observables=31.80MB
  Circuit Construction: +164.22 MB (25322 circuits)
  Cumulative Circuit Memory: 6754.19 MB
  Memory/Clique: 0.006 MB (prev: 0.007 MB)
  → Memory delta: CPU +172.64 MB, GPU +24.00 MB [1.4x]
Processing operator 72/645 - CPU: 7482.07 MB, GPU: 37.7872 GB free
Operator 72: 73904 Pauli terms -> 23166 cliques (efficiency: 31.3%) - Memory: 122.09 MB
  STL Containers: PauliMap=98.85MB, CommOps=52.69MB, Cliques=1.62MB
  Container Overhead: PauliMap=1.0x, CommOps=10.4x
  Container Details: CommOps size=73904, capacity=767296, PauliMap size=767296, buckets=1447153
  Accumulated Data: Coeffs=81.19MB, ZMasks=81.19MB, Observables=32.58MB
  Circuit Construction: +146.82 MB (23166 circuits)
  Cumulative Circuit Memory: 6901.01 MB
  Memory/Clique: 0.006 MB (prev: 0.006 MB)
  → Memory delta: CPU +164.76 MB, GPU +24.00 MB [1.3x]
Processing operator 73/645 - CPU: 7640.00 MB, GPU: 37.7638 GB free
Operator 73: 73904 Pauli terms -> 23615 cliques (efficiency: 32.0%) - Memory: 121.43 MB
  STL Containers: PauliMap=98.28MB, CommOps=52.34MB, Cliques=1.64MB
  Container Overhead: PauliMap=1.0x, CommOps=10.3x
  Container Details: CommOps size=73904, capacity=762272, PauliMap size=762272, buckets=1447153
  Accumulated Data: Coeffs=82.32MB, ZMasks=82.32MB, Observables=33.28MB
  Circuit Construction: +149.40 MB (23615 circuits)
  Cumulative Circuit Memory: 7050.41 MB
  Memory/Clique: 0.006 MB (prev: 0.006 MB)
  → Memory delta: CPU +166.91 MB, GPU +24.00 MB [1.4x]
Processing operator 74/645 - CPU: 7800.60 MB, GPU: 37.7404 GB free
Operator 74: 65600 Pauli terms -> 22315 cliques (efficiency: 34.0%) - Memory: 125.21 MB
  STL Containers: PauliMap=102.07MB, CommOps=54.61MB, Cliques=1.52MB
  Container Overhead: PauliMap=1.0x, CommOps=12.1x
  Container Details: CommOps size=65600, capacity=795387, PauliMap size=795387, buckets=1447153
  Accumulated Data: Coeffs=74.07MB, ZMasks=74.07MB, Observables=34.00MB
  Circuit Construction: +144.47 MB (22315 circuits)
  Cumulative Circuit Memory: 7194.88 MB
  Memory/Clique: 0.006 MB (prev: 0.006 MB)
  → Memory delta: CPU +160.34 MB, GPU +22.00 MB [1.3x]
Processing operator 75/645 - CPU: 7956.10 MB, GPU: 37.7189 GB free
Operator 75: 76160 Pauli terms -> 22416 cliques (efficiency: 29.4%) - Memory: 118.10 MB
  STL Containers: PauliMap=95.61MB, CommOps=50.74MB, Cliques=1.61MB
  Container Overhead: PauliMap=1.0x, CommOps=9.7x
  Container Details: CommOps size=76160, capacity=739003, PauliMap size=739003, buckets=1447153
  Accumulated Data: Coeffs=87.16MB, ZMasks=87.16MB, Observables=34.69MB
  Circuit Construction: +134.98 MB (22416 circuits)
  Cumulative Circuit Memory: 7329.86 MB
  Memory/Clique: 0.006 MB (prev: 0.006 MB)
  → Memory delta: CPU +152.97 MB, GPU +22.00 MB [1.3x]
Processing operator 76/645 - CPU: 8102.11 MB, GPU: 37.6974 GB free
Operator 76: 76160 Pauli terms -> 22934 cliques (efficiency: 30.1%) - Memory: 117.47 MB
  STL Containers: PauliMap=95.05MB, CommOps=50.41MB, Cliques=1.63MB
  Container Overhead: PauliMap=1.0x, CommOps=9.6x
  Container Details: CommOps size=76160, capacity=734111, PauliMap size=734111, buckets=1447153
  Accumulated Data: Coeffs=88.32MB, ZMasks=88.32MB, Observables=35.37MB
  Circuit Construction: +143.88 MB (22934 circuits)
  Cumulative Circuit Memory: 7473.73 MB
  Memory/Clique: 0.006 MB (prev: 0.006 MB)
  → Memory delta: CPU +159.73 MB, GPU +24.00 MB [1.4x]
Processing operator 77/645 - CPU: 8255.26 MB, GPU: 37.6740 GB free
Operator 77: 73904 Pauli terms -> 24564 cliques (efficiency: 33.2%) - Memory: 121.60 MB
  STL Containers: PauliMap=98.30MB, CommOps=52.35MB, Cliques=1.69MB
  Container Overhead: PauliMap=1.0x, CommOps=10.3x
  Container Details: CommOps size=73904, capacity=762464, PauliMap size=762464, buckets=1447153
  Accumulated Data: Coeffs=86.83MB, ZMasks=86.83MB, Observables=36.07MB
  Circuit Construction: +159.50 MB (24564 circuits)
  Cumulative Circuit Memory: 7633.24 MB
  Memory/Clique: 0.006 MB (prev: 0.006 MB)
  → Memory delta: CPU +177.09 MB, GPU +24.00 MB [1.5x]
Processing operator 78/645 - CPU: 8425.88 MB, GPU: 37.6505 GB free
Operator 78: 76160 Pauli terms -> 21989 cliques (efficiency: 28.9%) - Memory: 117.82 MB
  STL Containers: PauliMap=95.45MB, CommOps=50.64MB, Cliques=1.59MB
  Container Overhead: PauliMap=1.0x, CommOps=9.7x
  Container Details: CommOps size=76160, capacity=737551, PauliMap size=737551, buckets=1447153
  Accumulated Data: Coeffs=90.64MB, ZMasks=90.64MB, Observables=36.82MB
  Circuit Construction: +139.92 MB (21989 circuits)
  Cumulative Circuit Memory: 7773.16 MB
  Memory/Clique: 0.006 MB (prev: 0.006 MB)
  → Memory delta: CPU +157.70 MB, GPU +24.00 MB [1.3x]
Processing operator 79/645 - CPU: 8576.96 MB, GPU: 37.6271 GB free
Operator 79: 73904 Pauli terms -> 24943 cliques (efficiency: 33.8%) - Memory: 121.93 MB
  STL Containers: PauliMap=98.51MB, CommOps=52.48MB, Cliques=1.71MB
  Container Overhead: PauliMap=1.0x, CommOps=10.3x
  Container Details: CommOps size=73904, capacity=764288, PauliMap size=764288, buckets=1447153
  Accumulated Data: Coeffs=89.09MB, ZMasks=89.09MB, Observables=37.49MB
  Circuit Construction: +165.79 MB (24943 circuits)
  Cumulative Circuit Memory: 7938.94 MB
  Memory/Clique: 0.007 MB (prev: 0.006 MB)
  → Memory delta: CPU +183.38 MB, GPU +24.00 MB [1.5x]

--- SUMMARY: Operators 70-79 ---
  Batch Memory Growth: +1603.76 MB
  Pauli Terms Generated: 739760
  Commuting Groups: 234358
  Average Efficiency: 31.7%
  Cumulative Memory: 8760.33 MB
  Average Memory/Operator: 160.38 MB
  Theoretical Memory/Op: 4.55 MB (bloat factor: 35.2x)
  Memory Growth Rate: 160.4 MB/op
  Memory Bloat Factor: 35.2x
  System Memory Pressure: 13.8%
--- END SUMMARY ---

Processing operator 80/645 - CPU: 8753.66 MB, GPU: 37.6036 GB free
Operator 80: 76160 Pauli terms -> 23218 cliques (efficiency: 30.5%) - Memory: 118.49 MB
  STL Containers: PauliMap=95.82MB, CommOps=50.87MB, Cliques=1.64MB
  Container Overhead: PauliMap=1.0x, CommOps=9.7x
  Container Details: CommOps size=76160, capacity=740827, PauliMap size=740827, buckets=1447153
  Accumulated Data: Coeffs=92.97MB, ZMasks=92.97MB, Observables=38.25MB
  Circuit Construction: +145.45 MB (23218 circuits)
  Cumulative Circuit Memory: 8084.39 MB
  Memory/Clique: 0.006 MB (prev: 0.007 MB)
  → Memory delta: CPU +163.48 MB, GPU +24.00 MB [1.4x]
Processing operator 81/645 - CPU: 8910.07 MB, GPU: 37.5802 GB free
Operator 81: 73904 Pauli terms -> 25272 cliques (efficiency: 34.2%) - Memory: 122.59 MB
  STL Containers: PauliMap=98.99MB, CommOps=52.77MB, Cliques=1.72MB
  Container Overhead: PauliMap=1.0x, CommOps=10.4x
  Container Details: CommOps size=73904, capacity=768512, PauliMap size=768512, buckets=1447153
  Accumulated Data: Coeffs=91.34MB, ZMasks=91.34MB, Observables=38.96MB
  Circuit Construction: +166.02 MB (25272 circuits)
  Cumulative Circuit Memory: 8250.41 MB
  Memory/Clique: 0.007 MB (prev: 0.006 MB)
  → Memory delta: CPU +183.80 MB, GPU +24.00 MB [1.5x]
Processing operator 82/645 - CPU: 9087.05 MB, GPU: 37.5568 GB free
Operator 82: 73904 Pauli terms -> 25355 cliques (efficiency: 34.3%) - Memory: 122.26 MB
  STL Containers: PauliMap=98.72MB, CommOps=52.61MB, Cliques=1.72MB
  Container Overhead: PauliMap=1.0x, CommOps=10.4x
  Container Details: CommOps size=73904, capacity=766176, PauliMap size=766176, buckets=1447153
  Accumulated Data: Coeffs=92.47MB, ZMasks=92.47MB, Observables=39.73MB
  Circuit Construction: +163.39 MB (25355 circuits)
  Cumulative Circuit Memory: 8413.80 MB
  Memory/Clique: 0.006 MB (prev: 0.007 MB)
  → Memory delta: CPU +181.23 MB, GPU +26.00 MB [1.5x]
Processing operator 83/645 - CPU: 9261.46 MB, GPU: 37.5314 GB free
Operator 83: 65600 Pauli terms -> 23243 cliques (efficiency: 35.4%) - Memory: 125.90 MB
  STL Containers: PauliMap=102.50MB, CommOps=54.87MB, Cliques=1.56MB
  Container Overhead: PauliMap=1.0x, CommOps=12.2x
  Container Details: CommOps size=65600, capacity=799163, PauliMap size=799163, buckets=1447153
  Accumulated Data: Coeffs=83.08MB, ZMasks=83.08MB, Observables=40.51MB
  Circuit Construction: +148.21 MB (23243 circuits)
  Cumulative Circuit Memory: 8562.01 MB
  Memory/Clique: 0.006 MB (prev: 0.006 MB)
  → Memory delta: CPU +160.50 MB, GPU +24.00 MB [1.3x]
Processing operator 84/645 - CPU: 9417.01 MB, GPU: 37.5079 GB free
Operator 84: 76160 Pauli terms -> 23943 cliques (efficiency: 31.4%) - Memory: 118.30 MB
  STL Containers: PauliMap=95.58MB, CommOps=50.73MB, Cliques=1.68MB
  Container Overhead: PauliMap=1.0x, CommOps=9.7x
  Container Details: CommOps size=76160, capacity=738751, PauliMap size=738751, buckets=1447153
  Accumulated Data: Coeffs=97.62MB, ZMasks=97.62MB, Observables=41.21MB
  Circuit Construction: +154.40 MB (23943 circuits)
  Cumulative Circuit Memory: 8716.41 MB
  Memory/Clique: 0.006 MB (prev: 0.006 MB)
  → Memory delta: CPU +172.39 MB, GPU +24.00 MB [1.5x]
Processing operator 85/645 - CPU: 9582.45 MB, GPU: 37.4845 GB free
Operator 85: 73904 Pauli terms -> 24971 cliques (efficiency: 33.8%) - Memory: 122.31 MB
  STL Containers: PauliMap=98.80MB, CommOps=52.66MB, Cliques=1.71MB
  Container Overhead: PauliMap=1.0x, CommOps=10.4x
  Container Details: CommOps size=73904, capacity=766880, PauliMap size=766880, buckets=1447153
  Accumulated Data: Coeffs=95.85MB, ZMasks=95.85MB, Observables=41.95MB
  Circuit Construction: +161.02 MB (24971 circuits)
  Cumulative Circuit Memory: 8877.43 MB
  Memory/Clique: 0.006 MB (prev: 0.006 MB)
  → Memory delta: CPU +167.90 MB, GPU +26.00 MB [1.4x]
Processing operator 86/645 - CPU: 9743.56 MB, GPU: 37.4591 GB free
Operator 86: 73904 Pauli terms -> 23929 cliques (efficiency: 32.4%) - Memory: 121.17 MB
  STL Containers: PauliMap=98.03MB, CommOps=52.19MB, Cliques=1.66MB
  Container Overhead: PauliMap=1.0x, CommOps=10.3x
  Container Details: CommOps size=73904, capacity=760128, PauliMap size=760128, buckets=1447153
  Accumulated Data: Coeffs=96.98MB, ZMasks=96.98MB, Observables=42.71MB
  Circuit Construction: +159.37 MB (23929 circuits)
  Cumulative Circuit Memory: 9036.80 MB
  Memory/Clique: 0.007 MB (prev: 0.006 MB)
  → Memory delta: CPU +176.82 MB, GPU +24.00 MB [1.5x]
Processing operator 87/645 - CPU: 9914.08 MB, GPU: 37.4357 GB free
Operator 87: 73904 Pauli terms -> 25570 cliques (efficiency: 34.6%) - Memory: 121.97 MB
  STL Containers: PauliMap=98.46MB, CommOps=52.45MB, Cliques=1.73MB
  Container Overhead: PauliMap=1.0x, CommOps=10.3x
  Container Details: CommOps size=73904, capacity=763904, PauliMap size=763904, buckets=1447153
  Accumulated Data: Coeffs=98.11MB, ZMasks=98.11MB, Observables=43.44MB
  Circuit Construction: +165.46 MB (25570 circuits)
  Cumulative Circuit Memory: 9202.27 MB
  Memory/Clique: 0.006 MB (prev: 0.007 MB)
  → Memory delta: CPU +183.25 MB, GPU +26.00 MB [1.5x]
Processing operator 88/645 - CPU: 10090.77 MB, GPU: 37.4103 GB free
Operator 88: 65600 Pauli terms -> 24234 cliques (efficiency: 36.9%) - Memory: 125.15 MB
  STL Containers: PauliMap=101.79MB, CommOps=54.45MB, Cliques=1.61MB
  Container Overhead: PauliMap=1.0x, CommOps=12.1x
  Container Details: CommOps size=65600, capacity=792991, PauliMap size=792991, buckets=1447153
  Accumulated Data: Coeffs=88.09MB, ZMasks=88.09MB, Observables=44.22MB
  Circuit Construction: +154.91 MB (24234 circuits)
  Cumulative Circuit Memory: 9357.18 MB
  Memory/Clique: 0.006 MB (prev: 0.006 MB)
  → Memory delta: CPU +170.62 MB, GPU +24.00 MB [1.4x]
Processing operator 89/645 - CPU: 10256.76 MB, GPU: 37.3868 GB free
Operator 89: 73904 Pauli terms -> 25973 cliques (efficiency: 35.1%) - Memory: 121.63 MB
  STL Containers: PauliMap=98.15MB, CommOps=52.26MB, Cliques=1.75MB
  Container Overhead: PauliMap=1.0x, CommOps=10.3x
  Container Details: CommOps size=73904, capacity=761152, PauliMap size=761152, buckets=1447153
  Accumulated Data: Coeffs=100.36MB, ZMasks=100.36MB, Observables=44.96MB
  Circuit Construction: +161.26 MB (25973 circuits)
  Cumulative Circuit Memory: 9518.44 MB
  Memory/Clique: 0.006 MB (prev: 0.006 MB)
  → Memory delta: CPU +178.78 MB, GPU +26.00 MB [1.5x]

--- SUMMARY: Operators 80-89 ---
  Batch Memory Growth: +1675.21 MB
  Pauli Terms Generated: 726944
  Commuting Groups: 245708
  Average Efficiency: 33.9%
  Cumulative Memory: 10435.54 MB
  Average Memory/Operator: 167.52 MB
  Theoretical Memory/Op: 4.66 MB (bloat factor: 35.9x)
  Memory Growth Rate: 167.5 MB/op
  Memory Bloat Factor: 35.9x
  System Memory Pressure: 14.4%
--- END SUMMARY ---

Processing operator 90/645 - CPU: 10429.14 MB, GPU: 37.3615 GB free
Operator 90: 76160 Pauli terms -> 22853 cliques (efficiency: 30.0%) - Memory: 117.60 MB
  STL Containers: PauliMap=95.17MB, CommOps=50.48MB, Cliques=1.63MB
  Container Overhead: PauliMap=1.0x, CommOps=9.7x
  Container Details: CommOps size=76160, capacity=735135, PauliMap size=735135, buckets=1447153
  Accumulated Data: Coeffs=104.59MB, ZMasks=104.59MB, Observables=45.75MB
  Circuit Construction: +137.27 MB (22853 circuits)
  Cumulative Circuit Memory: 9655.71 MB
  Memory/Clique: 0.006 MB (prev: 0.006 MB)
  → Memory delta: CPU +154.99 MB, GPU +22.00 MB [1.3x]
Processing operator 91/645 - CPU: 10577.55 MB, GPU: 37.3400 GB free
Operator 91: 76160 Pauli terms -> 19827 cliques (efficiency: 26.0%) - Memory: 117.41 MB
  STL Containers: PauliMap=95.38MB, CommOps=50.61MB, Cliques=1.49MB
  Container Overhead: PauliMap=1.0x, CommOps=9.7x
  Container Details: CommOps size=76160, capacity=736991, PauliMap size=736991, buckets=1447153
  Accumulated Data: Coeffs=105.75MB, ZMasks=105.75MB, Observables=46.45MB
  Circuit Construction: +125.00 MB (19827 circuits)
  Cumulative Circuit Memory: 9780.71 MB
  Memory/Clique: 0.006 MB (prev: 0.006 MB)
  → Memory delta: CPU +142.86 MB, GPU +20.00 MB [1.2x]
Processing operator 92/645 - CPU: 10713.81 MB, GPU: 37.3204 GB free
Operator 92: 76160 Pauli terms -> 20142 cliques (efficiency: 26.4%) - Memory: 117.34 MB
  STL Containers: PauliMap=95.29MB, CommOps=50.55MB, Cliques=1.50MB
  Container Overhead: PauliMap=1.0x, CommOps=9.7x
  Container Details: CommOps size=76160, capacity=736143, PauliMap size=736143, buckets=1447153
  Accumulated Data: Coeffs=106.91MB, ZMasks=106.91MB, Observables=47.05MB
  Circuit Construction: +142.55 MB (20142 circuits)
  Cumulative Circuit Memory: 9923.26 MB
  Memory/Clique: 0.007 MB (prev: 0.006 MB)
  → Memory delta: CPU +160.36 MB, GPU +22.00 MB [1.4x]
Processing operator 93/645 - CPU: 10867.39 MB, GPU: 37.2990 GB free
Operator 93: 76160 Pauli terms -> 22038 cliques (efficiency: 28.9%) - Memory: 117.87 MB
  STL Containers: PauliMap=95.48MB, CommOps=50.66MB, Cliques=1.59MB
  Container Overhead: PauliMap=1.0x, CommOps=9.7x
  Container Details: CommOps size=76160, capacity=737823, PauliMap size=737823, buckets=1447153
  Accumulated Data: Coeffs=108.08MB, ZMasks=108.08MB, Observables=47.67MB
  Circuit Construction: +135.99 MB (22038 circuits)
  Cumulative Circuit Memory: 10059.25 MB
  Memory/Clique: 0.006 MB (prev: 0.007 MB)
  → Memory delta: CPU +142.75 MB, GPU +22.00 MB [1.2x]
Processing operator 94/645 - CPU: 11003.36 MB, GPU: 37.2775 GB free
Operator 94: 73904 Pauli terms -> 24316 cliques (efficiency: 32.9%) - Memory: 121.67 MB
  STL Containers: PauliMap=98.38MB, CommOps=52.40MB, Cliques=1.68MB
  Container Overhead: PauliMap=1.0x, CommOps=10.3x
  Container Details: CommOps size=73904, capacity=763168, PauliMap size=763168, buckets=1447153
  Accumulated Data: Coeffs=106.00MB, ZMasks=106.00MB, Observables=48.34MB
  Circuit Construction: +156.66 MB (24316 circuits)
  Cumulative Circuit Memory: 10215.91 MB
  Memory/Clique: 0.006 MB (prev: 0.006 MB)
  → Memory delta: CPU +174.24 MB, GPU +24.00 MB [1.4x]
Processing operator 95/645 - CPU: 11171.02 MB, GPU: 37.2540 GB free
Operator 95: 73904 Pauli terms -> 21132 cliques (efficiency: 28.6%) - Memory: 120.94 MB
  STL Containers: PauliMap=98.18MB, CommOps=52.29MB, Cliques=1.53MB
  Container Overhead: PauliMap=1.0x, CommOps=10.3x
  Container Details: CommOps size=73904, capacity=761472, PauliMap size=761472, buckets=1447153
  Accumulated Data: Coeffs=107.13MB, ZMasks=107.13MB, Observables=49.08MB
  Circuit Construction: +134.71 MB (21132 circuits)
  Cumulative Circuit Memory: 10350.62 MB
  Memory/Clique: 0.006 MB (prev: 0.006 MB)
  → Memory delta: CPU +152.24 MB, GPU +22.00 MB [1.3x]
Processing operator 96/645 - CPU: 11316.75 MB, GPU: 37.2325 GB free
Operator 96: 73904 Pauli terms -> 18967 cliques (efficiency: 25.7%) - Memory: 120.90 MB
  STL Containers: PauliMap=98.42MB, CommOps=52.43MB, Cliques=1.43MB
  Container Overhead: PauliMap=1.0x, CommOps=10.3x
  Container Details: CommOps size=73904, capacity=763520, PauliMap size=763520, buckets=1447153
  Accumulated Data: Coeffs=108.26MB, ZMasks=108.26MB, Observables=49.73MB
  Circuit Construction: +129.28 MB (18967 circuits)
  Cumulative Circuit Memory: 10479.90 MB
  Memory/Clique: 0.007 MB (prev: 0.006 MB)
  → Memory delta: CPU +143.58 MB, GPU +18.00 MB [1.2x]
Processing operator 97/645 - CPU: 11453.68 MB, GPU: 37.2150 GB free
Operator 97: 73904 Pauli terms -> 19260 cliques (efficiency: 26.1%) - Memory: 120.85 MB
  STL Containers: PauliMap=98.35MB, CommOps=52.38MB, Cliques=1.45MB
  Container Overhead: PauliMap=1.0x, CommOps=10.3x
  Container Details: CommOps size=73904, capacity=762880, PauliMap size=762880, buckets=1447153
  Accumulated Data: Coeffs=109.39MB, ZMasks=109.39MB, Observables=50.31MB
  Circuit Construction: +124.00 MB (19260 circuits)
  Cumulative Circuit Memory: 10603.90 MB
  Memory/Clique: 0.006 MB (prev: 0.007 MB)
  → Memory delta: CPU +134.06 MB, GPU +20.00 MB [1.1x]
Processing operator 98/645 - CPU: 11581.35 MB, GPU: 37.1954 GB free
Operator 98: 73904 Pauli terms -> 20476 cliques (efficiency: 27.7%) - Memory: 121.10 MB
  STL Containers: PauliMap=98.39MB, CommOps=52.41MB, Cliques=1.50MB
  Container Overhead: PauliMap=1.0x, CommOps=10.3x
  Container Details: CommOps size=73904, capacity=763264, PauliMap size=763264, buckets=1447153
  Accumulated Data: Coeffs=110.51MB, ZMasks=110.51MB, Observables=50.89MB
  Circuit Construction: +144.67 MB (20476 circuits)
  Cumulative Circuit Memory: 10748.57 MB
  Memory/Clique: 0.007 MB (prev: 0.006 MB)
  → Memory delta: CPU +162.25 MB, GPU +20.00 MB [1.3x]
Processing operator 99/645 - CPU: 11736.97 MB, GPU: 37.1759 GB free
Operator 99: 65600 Pauli terms -> 20485 cliques (efficiency: 31.2%) - Memory: 124.71 MB
  STL Containers: PauliMap=101.89MB, CommOps=54.51MB, Cliques=1.44MB
  Container Overhead: PauliMap=1.0x, CommOps=12.1x
  Container Details: CommOps size=65600, capacity=793883, PauliMap size=793883, buckets=1447153
  Accumulated Data: Coeffs=99.10MB, ZMasks=99.10MB, Observables=51.52MB
  Circuit Construction: +129.76 MB (20485 circuits)
  Cumulative Circuit Memory: 10878.33 MB
  Memory/Clique: 0.006 MB (prev: 0.007 MB)
  → Memory delta: CPU +134.49 MB, GPU +20.00 MB [1.1x]

--- SUMMARY: Operators 90-99 ---
  Batch Memory Growth: +1435.92 MB
  Pauli Terms Generated: 739760
  Commuting Groups: 209496
  Average Efficiency: 28.4%
  Cumulative Memory: 11871.46 MB
  Average Memory/Operator: 143.59 MB
  Theoretical Memory/Op: 4.25 MB (bloat factor: 33.8x)
  Memory Growth Rate: 143.6 MB/op
  Memory Bloat Factor: 33.8x
  System Memory Pressure: 15.0%
--- END SUMMARY ---

Processing operator 100/645 - CPU: 11866.93 MB, GPU: 37.1564 GB free
Operator 100: 76160 Pauli terms -> 22622 cliques (efficiency: 29.7%) - Memory: 117.03 MB
  STL Containers: PauliMap=94.75MB, CommOps=50.22MB, Cliques=1.62MB
  Container Overhead: PauliMap=1.0x, CommOps=9.6x
  Container Details: CommOps size=76160, capacity=731423, PauliMap size=731423, buckets=1447153
  Accumulated Data: Coeffs=116.21MB, ZMasks=116.21MB, Observables=52.14MB
  Circuit Construction: +131.62 MB (22622 circuits)
  Cumulative Circuit Memory: 11009.95 MB
  Memory/Clique: 0.006 MB (prev: 0.006 MB)
  → Memory delta: CPU +149.11 MB, GPU +24.00 MB [1.3x]
Processing operator 101/645 - CPU: 12009.74 MB, GPU: 37.1329 GB free
Operator 101: 76160 Pauli terms -> 19299 cliques (efficiency: 25.3%) - Memory: 116.71 MB
  STL Containers: PauliMap=94.89MB, CommOps=50.31MB, Cliques=1.46MB
  Container Overhead: PauliMap=1.0x, CommOps=9.6x
  Container Details: CommOps size=76160, capacity=732703, PauliMap size=732703, buckets=1447153
  Accumulated Data: Coeffs=117.37MB, ZMasks=117.37MB, Observables=52.83MB
  Circuit Construction: +120.55 MB (19299 circuits)
  Cumulative Circuit Memory: 11130.50 MB
  Memory/Clique: 0.006 MB (prev: 0.006 MB)
  → Memory delta: CPU +138.12 MB, GPU +20.00 MB [1.2x]
Processing operator 102/645 - CPU: 12141.57 MB, GPU: 37.1134 GB free
Operator 102: 76160 Pauli terms -> 19439 cliques (efficiency: 25.5%) - Memory: 116.80 MB
  STL Containers: PauliMap=94.94MB, CommOps=50.34MB, Cliques=1.47MB
  Container Overhead: PauliMap=1.0x, CommOps=9.6x
  Container Details: CommOps size=76160, capacity=733151, PauliMap size=733151, buckets=1447153
  Accumulated Data: Coeffs=118.54MB, ZMasks=118.54MB, Observables=53.42MB
  Circuit Construction: +121.29 MB (19439 circuits)
  Cumulative Circuit Memory: 11251.79 MB
  Memory/Clique: 0.006 MB (prev: 0.006 MB)
  → Memory delta: CPU +138.89 MB, GPU +18.00 MB [1.2x]
Processing operator 103/645 - CPU: 12274.05 MB, GPU: 37.0958 GB free
Operator 103: 76160 Pauli terms -> 21133 cliques (efficiency: 27.7%) - Memory: 117.10 MB
  STL Containers: PauliMap=94.98MB, CommOps=50.36MB, Cliques=1.55MB
  Container Overhead: PauliMap=1.0x, CommOps=9.6x
  Container Details: CommOps size=76160, capacity=733471, PauliMap size=733471, buckets=1447153
  Accumulated Data: Coeffs=119.70MB, ZMasks=119.70MB, Observables=54.02MB
  Circuit Construction: +141.23 MB (21133 circuits)
  Cumulative Circuit Memory: 11393.02 MB
  Memory/Clique: 0.007 MB (prev: 0.006 MB)
  → Memory delta: CPU +158.85 MB, GPU +22.00 MB [1.4x]
Processing operator 104/645 - CPU: 12426.31 MB, GPU: 37.0743 GB free
Operator 104: 73904 Pauli terms -> 23999 cliques (efficiency: 32.5%) - Memory: 120.92 MB
  STL Containers: PauliMap=97.83MB, CommOps=52.07MB, Cliques=1.66MB
  Container Overhead: PauliMap=1.0x, CommOps=10.3x
  Container Details: CommOps size=73904, capacity=758368, PauliMap size=758368, buckets=1447153
  Accumulated Data: Coeffs=117.28MB, ZMasks=117.28MB, Observables=54.66MB
  Circuit Construction: +154.39 MB (23999 circuits)
  Cumulative Circuit Memory: 11547.42 MB
  Memory/Clique: 0.006 MB (prev: 0.007 MB)
  → Memory delta: CPU +163.30 MB, GPU +24.00 MB [1.4x]
Processing operator 105/645 - CPU: 12583.52 MB, GPU: 37.0509 GB free
Operator 105: 76160 Pauli terms -> 22044 cliques (efficiency: 28.9%) - Memory: 117.45 MB
  STL Containers: PauliMap=95.15MB, CommOps=50.46MB, Cliques=1.59MB
  Container Overhead: PauliMap=1.0x, CommOps=9.6x
  Container Details: CommOps size=76160, capacity=734943, PauliMap size=734943, buckets=1447153
  Accumulated Data: Coeffs=122.02MB, ZMasks=122.02MB, Observables=55.39MB
  Circuit Construction: +134.15 MB (22044 circuits)
  Cumulative Circuit Memory: 11681.57 MB
  Memory/Clique: 0.006 MB (prev: 0.006 MB)
  → Memory delta: CPU +151.96 MB, GPU +22.00 MB [1.3x]
Processing operator 106/645 - CPU: 12729.00 MB, GPU: 37.0294 GB free
Operator 106: 76160 Pauli terms -> 20416 cliques (efficiency: 26.8%) - Memory: 117.27 MB
  STL Containers: PauliMap=95.20MB, CommOps=50.50MB, Cliques=1.52MB
  Container Overhead: PauliMap=1.0x, CommOps=9.7x
  Container Details: CommOps size=76160, capacity=735391, PauliMap size=735391, buckets=1447153
  Accumulated Data: Coeffs=123.18MB, ZMasks=123.18MB, Observables=56.07MB
  Circuit Construction: +131.70 MB (20416 circuits)
  Cumulative Circuit Memory: 11813.27 MB
  Memory/Clique: 0.006 MB (prev: 0.006 MB)
  → Memory delta: CPU +149.45 MB, GPU +22.00 MB [1.3x]
Processing operator 107/645 - CPU: 12871.73 MB, GPU: 37.0079 GB free
Operator 107: 76160 Pauli terms -> 21936 cliques (efficiency: 28.8%) - Memory: 117.34 MB
  STL Containers: PauliMap=95.08MB, CommOps=50.42MB, Cliques=1.59MB
  Container Overhead: PauliMap=1.0x, CommOps=9.6x
  Container Details: CommOps size=76160, capacity=734303, PauliMap size=734303, buckets=1447153
  Accumulated Data: Coeffs=124.35MB, ZMasks=124.35MB, Observables=56.69MB
  Circuit Construction: +138.05 MB (21936 circuits)
  Cumulative Circuit Memory: 11951.32 MB
  Memory/Clique: 0.006 MB (prev: 0.006 MB)
  → Memory delta: CPU +151.68 MB, GPU +22.00 MB [1.3x]
Processing operator 108/645 - CPU: 13016.77 MB, GPU: 36.9865 GB free
Operator 108: 73904 Pauli terms -> 24146 cliques (efficiency: 32.7%) - Memory: 121.39 MB
  STL Containers: PauliMap=98.18MB, CommOps=52.28MB, Cliques=1.67MB
  Container Overhead: PauliMap=1.0x, CommOps=10.3x
  Container Details: CommOps size=73904, capacity=761408, PauliMap size=761408, buckets=1447153
  Accumulated Data: Coeffs=121.79MB, ZMasks=121.79MB, Observables=57.36MB
  Circuit Construction: +161.89 MB (24146 circuits)
  Cumulative Circuit Memory: 12113.21 MB
  Memory/Clique: 0.007 MB (prev: 0.006 MB)
  → Memory delta: CPU +178.63 MB, GPU +24.00 MB [1.5x]
Processing operator 109/645 - CPU: 13188.90 MB, GPU: 36.9630 GB free
Operator 109: 73904 Pauli terms -> 20075 cliques (efficiency: 27.2%) - Memory: 120.81 MB
  STL Containers: PauliMap=98.21MB, CommOps=52.30MB, Cliques=1.48MB
  Container Overhead: PauliMap=1.0x, CommOps=10.3x
  Container Details: CommOps size=73904, capacity=761728, PauliMap size=761728, buckets=1447153
  Accumulated Data: Coeffs=122.92MB, ZMasks=122.92MB, Observables=58.10MB
  Circuit Construction: +135.77 MB (20075 circuits)
  Cumulative Circuit Memory: 12248.98 MB
  Memory/Clique: 0.007 MB (prev: 0.007 MB)
  → Memory delta: CPU +145.81 MB, GPU +20.00 MB [1.2x]

--- SUMMARY: Operators 100-109 ---
  Batch Memory Growth: +1463.25 MB
  Pauli Terms Generated: 754832
  Commuting Groups: 215109
  Average Efficiency: 28.5%
  Cumulative Memory: 13334.71 MB
  Average Memory/Operator: 146.33 MB
  Theoretical Memory/Op: 4.35 MB (bloat factor: 33.6x)
  Memory Growth Rate: 146.3 MB/op
  Memory Bloat Factor: 33.6x
  System Memory Pressure: 15.5%
--- END SUMMARY ---

Processing operator 110/645 - CPU: 13328.19 MB, GPU: 36.9435 GB free
Operator 110: 73904 Pauli terms -> 19385 cliques (efficiency: 26.2%) - Memory: 120.85 MB
  STL Containers: PauliMap=98.33MB, CommOps=52.37MB, Cliques=1.45MB
  Container Overhead: PauliMap=1.0x, CommOps=10.3x
  Container Details: CommOps size=73904, capacity=762720, PauliMap size=762720, buckets=1447153
  Accumulated Data: Coeffs=124.05MB, ZMasks=124.05MB, Observables=58.71MB
  Circuit Construction: +126.89 MB (19385 circuits)
  Cumulative Circuit Memory: 12375.87 MB
  Memory/Clique: 0.007 MB (prev: 0.007 MB)
  → Memory delta: CPU +135.71 MB, GPU +20.00 MB [1.1x]
Processing operator 111/645 - CPU: 13457.31 MB, GPU: 36.9240 GB free
Operator 111: 73904 Pauli terms -> 20418 cliques (efficiency: 27.6%) - Memory: 120.65 MB
  STL Containers: PauliMap=98.05MB, CommOps=52.20MB, Cliques=1.50MB
  Container Overhead: PauliMap=1.0x, CommOps=10.3x
  Container Details: CommOps size=73904, capacity=760256, PauliMap size=760256, buckets=1447153
  Accumulated Data: Coeffs=125.17MB, ZMasks=125.17MB, Observables=59.30MB
  Circuit Construction: +129.52 MB (20418 circuits)
  Cumulative Circuit Memory: 12505.38 MB
  Memory/Clique: 0.006 MB (prev: 0.007 MB)
  → Memory delta: CPU +144.34 MB, GPU +20.00 MB [1.2x]
Processing operator 112/645 - CPU: 13595.43 MB, GPU: 36.9044 GB free
Operator 112: 65600 Pauli terms -> 19887 cliques (efficiency: 30.3%) - Memory: 124.41 MB
  STL Containers: PauliMap=101.73MB, CommOps=54.41MB, Cliques=1.41MB
  Container Overhead: PauliMap=1.0x, CommOps=12.1x
  Container Details: CommOps size=65600, capacity=792415, PauliMap size=792415, buckets=1447153
  Accumulated Data: Coeffs=112.11MB, ZMasks=112.11MB, Observables=59.92MB
  Circuit Construction: +129.17 MB (19887 circuits)
  Cumulative Circuit Memory: 12634.55 MB
  Memory/Clique: 0.006 MB (prev: 0.006 MB)
  → Memory delta: CPU +144.69 MB, GPU +20.00 MB [1.2x]
Processing operator 113/645 - CPU: 13735.63 MB, GPU: 36.8849 GB free
Operator 113: 76160 Pauli terms -> 20522 cliques (efficiency: 26.9%) - Memory: 116.83 MB
  STL Containers: PauliMap=94.84MB, CommOps=50.28MB, Cliques=1.52MB
  Container Overhead: PauliMap=1.0x, CommOps=9.6x
  Container Details: CommOps size=76160, capacity=732255, PauliMap size=732255, buckets=1447153
  Accumulated Data: Coeffs=131.32MB, ZMasks=131.32MB, Observables=60.53MB
  Circuit Construction: +120.86 MB (20522 circuits)
  Cumulative Circuit Memory: 12755.42 MB
  Memory/Clique: 0.006 MB (prev: 0.006 MB)
  → Memory delta: CPU +138.40 MB, GPU +20.00 MB [1.2x]
Processing operator 114/645 - CPU: 13867.68 MB, GPU: 36.8654 GB free
Operator 114: 76160 Pauli terms -> 18877 cliques (efficiency: 24.8%) - Memory: 116.89 MB
  STL Containers: PauliMap=95.09MB, CommOps=50.43MB, Cliques=1.45MB
  Container Overhead: PauliMap=1.0x, CommOps=9.6x
  Container Details: CommOps size=76160, capacity=734415, PauliMap size=734415, buckets=1447153
  Accumulated Data: Coeffs=132.48MB, ZMasks=132.48MB, Observables=61.16MB
  Circuit Construction: +127.98 MB (18877 circuits)
  Cumulative Circuit Memory: 12883.40 MB
  Memory/Clique: 0.007 MB (prev: 0.006 MB)
  → Memory delta: CPU +145.67 MB, GPU +20.00 MB [1.2x]
Processing operator 115/645 - CPU: 14006.70 MB, GPU: 36.8458 GB free
Operator 115: 76160 Pauli terms -> 20694 cliques (efficiency: 27.2%) - Memory: 116.77 MB
  STL Containers: PauliMap=94.77MB, CommOps=50.24MB, Cliques=1.53MB
  Container Overhead: PauliMap=1.0x, CommOps=9.6x
  Container Details: CommOps size=76160, capacity=731679, PauliMap size=731679, buckets=1447153
  Accumulated Data: Coeffs=133.64MB, ZMasks=133.64MB, Observables=61.73MB
  Circuit Construction: +130.09 MB (20694 circuits)
  Cumulative Circuit Memory: 13013.50 MB
  Memory/Clique: 0.006 MB (prev: 0.007 MB)
  → Memory delta: CPU +139.91 MB, GPU +20.00 MB [1.2x]
Processing operator 116/645 - CPU: 14140.38 MB, GPU: 36.8263 GB free
Operator 116: 73904 Pauli terms -> 23099 cliques (efficiency: 31.3%) - Memory: 120.85 MB
  STL Containers: PauliMap=97.88MB, CommOps=52.10MB, Cliques=1.62MB
  Container Overhead: PauliMap=1.0x, CommOps=10.3x
  Container Details: CommOps size=73904, capacity=758784, PauliMap size=758784, buckets=1447153
  Accumulated Data: Coeffs=130.81MB, ZMasks=130.81MB, Observables=62.36MB
  Circuit Construction: +149.39 MB (23099 circuits)
  Cumulative Circuit Memory: 13162.88 MB
  Memory/Clique: 0.006 MB (prev: 0.006 MB)
  → Memory delta: CPU +166.75 MB, GPU +24.00 MB [1.4x]
Processing operator 117/645 - CPU: 14300.85 MB, GPU: 36.8029 GB free
Operator 117: 76160 Pauli terms -> 21616 cliques (efficiency: 28.4%) - Memory: 117.76 MB
  STL Containers: PauliMap=95.44MB, CommOps=50.64MB, Cliques=1.57MB
  Container Overhead: PauliMap=1.0x, CommOps=9.7x
[...]
  Circuit Construction: +137.84 MB (22674 circuits)
  Cumulative Circuit Memory: 36072.01 MB
  Memory/Clique: 0.006 MB (prev: 0.006 MB)
  → Memory delta: CPU +156.29 MB, GPU +24.00 MB [1.3x]
Processing operator 277/645 - CPU: 38667.61 MB, GPU: 33.2365 GB free
Operator 277: 77680 Pauli terms -> 22478 cliques (efficiency: 28.9%) - Memory: 117.89 MB
  STL Containers: PauliMap=95.32MB, CommOps=50.57MB, Cliques=1.62MB
  Container Overhead: PauliMap=1.0x, CommOps=9.5x
  Container Details: CommOps size=77680, capacity=736447, PauliMap size=736447, buckets=1447153
  Accumulated Data: Coeffs=328.33MB, ZMasks=328.33MB, Observables=173.68MB
  Circuit Construction: +140.49 MB (22478 circuits)
  Cumulative Circuit Memory: 36212.50 MB
  Memory/Clique: 0.006 MB (prev: 0.006 MB)
  → Memory delta: CPU +159.00 MB, GPU +22.00 MB [1.3x]
Processing operator 278/645 - CPU: 38819.51 MB, GPU: 33.2150 GB free
Operator 278: 77680 Pauli terms -> 22907 cliques (efficiency: 29.5%) - Memory: 118.48 MB
  STL Containers: PauliMap=95.74MB, CommOps=50.82MB, Cliques=1.64MB
  Container Overhead: PauliMap=1.0x, CommOps=9.5x
  Container Details: CommOps size=77680, capacity=740079, PauliMap size=740079, buckets=1447153
  Accumulated Data: Coeffs=329.51MB, ZMasks=329.51MB, Observables=174.37MB
  Circuit Construction: +142.33 MB (22907 circuits)
  Cumulative Circuit Memory: 36354.83 MB
  Memory/Clique: 0.006 MB (prev: 0.006 MB)
  → Memory delta: CPU +159.21 MB, GPU +22.00 MB [1.3x]
Processing operator 279/645 - CPU: 38973.43 MB, GPU: 33.1935 GB free
Operator 279: 71334 Pauli terms -> 21005 cliques (efficiency: 29.4%) - Memory: 114.37 MB
  STL Containers: PauliMap=93.22MB, CommOps=49.31MB, Cliques=1.51MB
  Container Overhead: PauliMap=1.0x, CommOps=10.1x
  Container Details: CommOps size=71334, capacity=718076, PauliMap size=718076, buckets=1447153
  Accumulated Data: Coeffs=303.68MB, ZMasks=303.68MB, Observables=175.07MB
  Circuit Construction: +125.00 MB (21005 circuits)
  Cumulative Circuit Memory: 36479.83 MB
  Memory/Clique: 0.006 MB (prev: 0.006 MB)
  → Memory delta: CPU +142.88 MB, GPU +22.00 MB [1.2x]

--- SUMMARY: Operators 270-279 ---
  Batch Memory Growth: +1589.66 MB
  Pauli Terms Generated: 761668
  Commuting Groups: 240593
  Average Efficiency: 31.6%
  Cumulative Memory: 39116.31 MB
  Average Memory/Operator: 158.97 MB
  Theoretical Memory/Op: 4.68 MB (bloat factor: 34.0x)
  Memory Growth Rate: 159.0 MB/op
  Memory Bloat Factor: 34.0x
  System Memory Pressure: 25.5%
--- END SUMMARY ---

Processing operator 280/645 - CPU: 39110.58 MB, GPU: 33.1720 GB free
Operator 280: 77680 Pauli terms -> 26071 cliques (efficiency: 33.6%) - Memory: 118.80 MB
  STL Containers: PauliMap=95.61MB, CommOps=50.74MB, Cliques=1.79MB
  Container Overhead: PauliMap=1.0x, CommOps=9.5x
  Container Details: CommOps size=77680, capacity=738943, PauliMap size=738943, buckets=1447153
  Accumulated Data: Coeffs=331.88MB, ZMasks=331.88MB, Observables=175.71MB
  Circuit Construction: +161.89 MB (26071 circuits)
  Cumulative Circuit Memory: 36641.72 MB
  Memory/Clique: 0.006 MB (prev: 0.006 MB)
  → Memory delta: CPU +179.53 MB, GPU +26.00 MB [1.5x]
Processing operator 281/645 - CPU: 39284.28 MB, GPU: 33.1466 GB free
Operator 281: 75240 Pauli terms -> 28257 cliques (efficiency: 37.6%) - Memory: 123.00 MB
  STL Containers: PauliMap=98.85MB, CommOps=52.68MB, Cliques=1.87MB
  Container Overhead: PauliMap=1.0x, CommOps=10.2x
  Container Details: CommOps size=75240, capacity=767280, PauliMap size=767280, buckets=1447153
  Accumulated Data: Coeffs=322.61MB, ZMasks=322.61MB, Observables=176.50MB
  Circuit Construction: +179.48 MB (28257 circuits)
  Cumulative Circuit Memory: 36821.20 MB
  Memory/Clique: 0.006 MB (prev: 0.006 MB)
  → Memory delta: CPU +196.83 MB, GPU +28.00 MB [1.6x]
Processing operator 282/645 - CPU: 39475.42 MB, GPU: 33.1193 GB free
Operator 282: 75240 Pauli terms -> 22913 cliques (efficiency: 30.5%) - Memory: 122.01 MB
  STL Containers: PauliMap=98.71MB, CommOps=52.60MB, Cliques=1.62MB
  Container Overhead: PauliMap=1.0x, CommOps=10.2x
  Container Details: CommOps size=75240, capacity=766064, PauliMap size=766064, buckets=1447153
  Accumulated Data: Coeffs=323.76MB, ZMasks=323.76MB, Observables=177.37MB
  Circuit Construction: +143.31 MB (22913 circuits)
  Cumulative Circuit Memory: 36964.51 MB
  Memory/Clique: 0.006 MB (prev: 0.006 MB)
  → Memory delta: CPU +160.96 MB, GPU +24.00 MB [1.3x]
Processing operator 283/645 - CPU: 39630.68 MB, GPU: 33.0958 GB free
Operator 283: 75240 Pauli terms -> 21897 cliques (efficiency: 29.1%) - Memory: 121.27 MB
  STL Containers: PauliMap=98.25MB, CommOps=52.32MB, Cliques=1.58MB
  Container Overhead: PauliMap=1.0x, CommOps=10.1x
  Container Details: CommOps size=75240, capacity=762032, PauliMap size=762032, buckets=1447153
  Accumulated Data: Coeffs=324.90MB, ZMasks=324.90MB, Observables=178.07MB
  Circuit Construction: +138.68 MB (21897 circuits)
  Cumulative Circuit Memory: 37103.19 MB
  Memory/Clique: 0.006 MB (prev: 0.006 MB)
  → Memory delta: CPU +156.82 MB, GPU +22.00 MB [1.3x]
Processing operator 284/645 - CPU: 39781.32 MB, GPU: 33.0743 GB free
Operator 284: 75240 Pauli terms -> 21951 cliques (efficiency: 29.2%) - Memory: 121.96 MB
  STL Containers: PauliMap=98.79MB, CommOps=52.65MB, Cliques=1.58MB
  Container Overhead: PauliMap=1.0x, CommOps=10.2x
  Container Details: CommOps size=75240, capacity=766736, PauliMap size=766736, buckets=1447153
  Accumulated Data: Coeffs=326.05MB, ZMasks=326.05MB, Observables=178.73MB
  Circuit Construction: +142.80 MB (21951 circuits)
  Cumulative Circuit Memory: 37245.99 MB
  Memory/Clique: 0.007 MB (prev: 0.006 MB)
  → Memory delta: CPU +160.66 MB, GPU +22.00 MB [1.3x]
Processing operator 285/645 - CPU: 39935.33 MB, GPU: 33.0529 GB free
Operator 285: 70360 Pauli terms -> 20622 cliques (efficiency: 29.3%) - Memory: 119.51 MB
  STL Containers: PauliMap=97.39MB, CommOps=51.81MB, Cliques=1.48MB
  Container Overhead: PauliMap=1.0x, CommOps=10.7x
  Container Details: CommOps size=70360, capacity=754560, PauliMap size=754560, buckets=1447153
  Accumulated Data: Coeffs=305.98MB, ZMasks=305.98MB, Observables=179.40MB
  Circuit Construction: +127.03 MB (20622 circuits)
  Cumulative Circuit Memory: 37373.02 MB
  Memory/Clique: 0.006 MB (prev: 0.007 MB)
  → Memory delta: CPU +143.18 MB, GPU +20.00 MB [1.2x]
Processing operator 286/645 - CPU: 40073.52 MB, GPU: 33.0333 GB free
Operator 286: 75240 Pauli terms -> 25327 cliques (efficiency: 33.7%) - Memory: 122.27 MB
  STL Containers: PauliMap=98.63MB, CommOps=52.55MB, Cliques=1.73MB
  Container Overhead: PauliMap=1.0x, CommOps=10.2x
  Container Details: CommOps size=75240, capacity=765360, PauliMap size=765360, buckets=1447153
  Accumulated Data: Coeffs=328.35MB, ZMasks=328.35MB, Observables=180.03MB
  Circuit Construction: +159.07 MB (25327 circuits)
  Cumulative Circuit Memory: 37532.08 MB
  Memory/Clique: 0.006 MB (prev: 0.006 MB)
  → Memory delta: CPU +176.83 MB, GPU +26.00 MB [1.4x]
Processing operator 287/645 - CPU: 40244.00 MB, GPU: 33.0079 GB free
Operator 287: 66752 Pauli terms -> 23972 cliques (efficiency: 35.9%) - Memory: 126.07 MB
  STL Containers: PauliMap=102.45MB, CommOps=54.85MB, Cliques=1.61MB
  Container Overhead: PauliMap=1.0x, CommOps=12.0x
  Container Details: CommOps size=66752, capacity=798783, PauliMap size=798783, buckets=1447153
  Accumulated Data: Coeffs=292.33MB, ZMasks=292.33MB, Observables=180.81MB
  Circuit Construction: +155.57 MB (23972 circuits)
  Cumulative Circuit Memory: 37687.66 MB
  Memory/Clique: 0.006 MB (prev: 0.006 MB)
  → Memory delta: CPU +171.73 MB, GPU +24.00 MB [1.4x]
Processing operator 288/645 - CPU: 40410.84 MB, GPU: 32.9845 GB free
Operator 288: 77680 Pauli terms -> 22393 cliques (efficiency: 28.8%) - Memory: 117.67 MB
  STL Containers: PauliMap=95.16MB, CommOps=50.47MB, Cliques=1.62MB
  Container Overhead: PauliMap=1.0x, CommOps=9.5x
  Container Details: CommOps size=77680, capacity=735039, PauliMap size=735039, buckets=1447153
  Accumulated Data: Coeffs=341.37MB, ZMasks=341.37MB, Observables=181.54MB
  Circuit Construction: +134.06 MB (22393 circuits)
  Cumulative Circuit Memory: 37821.71 MB
  Memory/Clique: 0.006 MB (prev: 0.006 MB)
  → Memory delta: CPU +151.47 MB, GPU +22.00 MB [1.3x]
Processing operator 289/645 - CPU: 40556.12 MB, GPU: 32.9630 GB free
Operator 289: 77680 Pauli terms -> 21774 cliques (efficiency: 28.0%) - Memory: 117.31 MB
  STL Containers: PauliMap=94.95MB, CommOps=50.34MB, Cliques=1.59MB
  Container Overhead: PauliMap=1.0x, CommOps=9.4x
  Container Details: CommOps size=77680, capacity=733183, PauliMap size=733183, buckets=1447153
  Accumulated Data: Coeffs=342.55MB, ZMasks=342.55MB, Observables=182.22MB
  Circuit Construction: +137.75 MB (21774 circuits)
  Cumulative Circuit Memory: 37959.47 MB
  Memory/Clique: 0.006 MB (prev: 0.006 MB)
  → Memory delta: CPU +155.25 MB, GPU +22.00 MB [1.3x]

--- SUMMARY: Operators 280-289 ---
  Batch Memory Growth: +1595.06 MB
  Pauli Terms Generated: 746352
  Commuting Groups: 235177
  Average Efficiency: 31.6%
  Cumulative Memory: 40711.37 MB
  Average Memory/Operator: 159.51 MB
  Theoretical Memory/Op: 4.58 MB (bloat factor: 34.8x)
  Memory Growth Rate: 159.5 MB/op
  Memory Bloat Factor: 34.8x
  System Memory Pressure: 26.1%
--- END SUMMARY ---

Processing operator 290/645 - CPU: 40705.24 MB, GPU: 32.9415 GB free
Operator 290: 77680 Pauli terms -> 21923 cliques (efficiency: 28.2%) - Memory: 117.84 MB
  STL Containers: PauliMap=95.35MB, CommOps=50.58MB, Cliques=1.60MB
  Container Overhead: PauliMap=1.0x, CommOps=9.5x
  Container Details: CommOps size=77680, capacity=736687, PauliMap size=736687, buckets=1447153
  Accumulated Data: Coeffs=343.74MB, ZMasks=343.74MB, Observables=182.89MB
  Circuit Construction: +136.25 MB (21923 circuits)
  Cumulative Circuit Memory: 38095.72 MB
  Memory/Clique: 0.006 MB (prev: 0.006 MB)
  → Memory delta: CPU +154.38 MB, GPU +22.00 MB [1.3x]
Processing operator 291/645 - CPU: 40853.22 MB, GPU: 32.9200 GB free
Operator 291: 71334 Pauli terms -> 19178 cliques (efficiency: 26.9%) - Memory: 113.67 MB
  STL Containers: PauliMap=92.88MB, CommOps=49.10MB, Cliques=1.42MB
  Container Overhead: PauliMap=1.0x, CommOps=10.0x
  Container Details: CommOps size=71334, capacity=715132, PauliMap size=715132, buckets=1447153
  Accumulated Data: Coeffs=316.74MB, ZMasks=316.74MB, Observables=183.55MB
  Circuit Construction: +116.83 MB (19178 circuits)
  Cumulative Circuit Memory: 38212.55 MB
  Memory/Clique: 0.006 MB (prev: 0.006 MB)
  → Memory delta: CPU +133.63 MB, GPU +20.00 MB [1.2x]
Processing operator 292/645 - CPU: 40981.87 MB, GPU: 32.9005 GB free
Operator 292: 77680 Pauli terms -> 25641 cliques (efficiency: 33.0%) - Memory: 118.33 MB
  STL Containers: PauliMap=95.29MB, CommOps=50.55MB, Cliques=1.77MB
  Container Overhead: PauliMap=1.0x, CommOps=9.5x
  Container Details: CommOps size=77680, capacity=736191, PauliMap size=736191, buckets=1447153
  Accumulated Data: Coeffs=346.11MB, ZMasks=346.11MB, Observables=184.14MB
  Circuit Construction: +162.22 MB (25641 circuits)
  Cumulative Circuit Memory: 38374.77 MB
  Memory/Clique: 0.006 MB (prev: 0.006 MB)
  → Memory delta: CPU +179.94 MB, GPU +26.00 MB [1.5x]
Processing operator 293/645 - CPU: 41155.47 MB, GPU: 32.8751 GB free
Operator 293: 75240 Pauli terms -> 27222 cliques (efficiency: 36.2%) - Memory: 122.40 MB
  STL Containers: PauliMap=98.50MB, CommOps=52.48MB, Cliques=1.82MB
  Container Overhead: PauliMap=1.0x, CommOps=10.2x
  Container Details: CommOps size=75240, capacity=764272, PauliMap size=764272, buckets=1447153
  Accumulated Data: Coeffs=336.38MB, ZMasks=336.38MB, Observables=184.92MB
  Circuit Construction: +174.17 MB (27222 circuits)
  Cumulative Circuit Memory: 38548.94 MB
  Memory/Clique: 0.006 MB (prev: 0.006 MB)
  → Memory delta: CPU +192.31 MB, GPU +28.00 MB [1.6x]
Processing operator 294/645 - CPU: 41341.33 MB, GPU: 32.8478 GB free
Operator 294: 38976 Pauli terms -> 17630 cliques (efficiency: 45.2%) - Memory: 59.65 MB
  STL Containers: PauliMap=47.35MB, CommOps=25.15MB, Cliques=1.10MB
  Container Overhead: PauliMap=1.0x, CommOps=9.4x
  Container Details: CommOps size=38976, capacity=366256, PauliMap size=366256, buckets=712697
  Accumulated Data: Coeffs=174.85MB, ZMasks=174.85MB, Observables=185.75MB
  Circuit Construction: +116.16 MB (17630 circuits)
  Cumulative Circuit Memory: 38665.10 MB
  Memory/Clique: 0.007 MB (prev: 0.006 MB)
  → Memory delta: CPU +119.54 MB, GPU +18.00 MB [2.0x]
Processing operator 295/645 - CPU: 41460.99 MB, GPU: 32.8302 GB free
Operator 295: 70360 Pauli terms -> 32793 cliques (efficiency: 46.6%) - Memory: 119.72 MB
  STL Containers: PauliMap=96.09MB, CommOps=51.03MB, Cliques=2.04MB
  Container Overhead: PauliMap=1.0x, CommOps=10.6x
  Container Details: CommOps size=70360, capacity=743200, PauliMap size=743200, buckets=1447153
  Accumulated Data: Coeffs=316.71MB, ZMasks=316.71MB, Observables=186.29MB
  Circuit Construction: +174.30 MB (32793 circuits)
  Cumulative Circuit Memory: 38839.39 MB
  Memory/Clique: 0.005 MB (prev: 0.007 MB)
  → Memory delta: CPU +195.29 MB, GPU +32.00 MB [1.6x]
Processing operator 296/645 - CPU: 41651.41 MB, GPU: 32.7990 GB free
Operator 296: 77680 Pauli terms -> 26312 cliques (efficiency: 33.9%) - Memory: 117.86 MB
  STL Containers: PauliMap=94.83MB, CommOps=50.28MB, Cliques=1.80MB
  Container Overhead: PauliMap=1.0x, CommOps=9.4x
  Container Details: CommOps size=77680, capacity=732191, PauliMap size=732191, buckets=1447153
  Accumulated Data: Coeffs=350.85MB, ZMasks=350.85MB, Observables=187.29MB
  Circuit Construction: +158.79 MB (26312 circuits)
  Cumulative Circuit Memory: 38998.19 MB
  Memory/Clique: 0.006 MB (prev: 0.005 MB)
  → Memory delta: CPU +176.72 MB, GPU +26.00 MB [1.5x]
Processing operator 297/645 - CPU: 41821.98 MB, GPU: 32.7736 GB free
Operator 297: 77680 Pauli terms -> 26032 cliques (efficiency: 33.5%) - Memory: 117.43 MB
  STL Containers: PauliMap=94.53MB, CommOps=50.09MB, Cliques=1.78MB
  Container Overhead: PauliMap=1.0x, CommOps=9.4x
  Container Details: CommOps size=77680, capacity=729535, PauliMap size=729535, buckets=1447153
  Accumulated Data: Coeffs=352.03MB, ZMasks=352.03MB, Observables=188.09MB
  Circuit Construction: +157.64 MB (26032 circuits)
  Cumulative Circuit Memory: 39155.83 MB
  Memory/Clique: 0.006 MB (prev: 0.006 MB)
  → Memory delta: CPU +175.77 MB, GPU +26.00 MB [1.5x]
Processing operator 298/645 - CPU: 41991.89 MB, GPU: 32.7482 GB free
Operator 298: 77680 Pauli terms -> 26350 cliques (efficiency: 33.9%) - Memory: 117.96 MB
  STL Containers: PauliMap=94.91MB, CommOps=50.32MB, Cliques=1.80MB
  Container Overhead: PauliMap=1.0x, CommOps=9.4x
  Container Details: CommOps size=77680, capacity=732831, PauliMap size=732831, buckets=1447153
  Accumulated Data: Coeffs=353.22MB, ZMasks=353.22MB, Observables=188.89MB
  Circuit Construction: +161.07 MB (26350 circuits)
  Cumulative Circuit Memory: 39316.90 MB
  Memory/Clique: 0.006 MB (prev: 0.006 MB)
  → Memory delta: CPU +178.52 MB, GPU +28.00 MB [1.5x]
Processing operator 299/645 - CPU: 42164.13 MB, GPU: 32.7208 GB free
Operator 299: 77680 Pauli terms -> 27353 cliques (efficiency: 35.2%) - Memory: 118.43 MB
  STL Containers: PauliMap=95.16MB, CommOps=50.47MB, Cliques=1.84MB
  Container Overhead: PauliMap=1.0x, CommOps=9.5x
  Container Details: CommOps size=77680, capacity=735071, PauliMap size=735071, buckets=1447153
  Accumulated Data: Coeffs=354.41MB, ZMasks=354.41MB, Observables=189.69MB
  Circuit Construction: +165.59 MB (27353 circuits)
  Cumulative Circuit Memory: 39482.48 MB
  Memory/Clique: 0.006 MB (prev: 0.006 MB)
  → Memory delta: CPU +183.90 MB, GPU +28.00 MB [1.6x]

--- SUMMARY: Operators 290-299 ---
  Batch Memory Growth: +1636.67 MB
  Pauli Terms Generated: 721990
  Commuting Groups: 250434
  Average Efficiency: 35.3%
  Cumulative Memory: 42348.04 MB
  Average Memory/Operator: 163.67 MB
  Theoretical Memory/Op: 4.71 MB (bloat factor: 34.8x)
  Memory Growth Rate: 163.7 MB/op
  Memory Bloat Factor: 34.8x
  System Memory Pressure: 26.7%
--- END SUMMARY ---

Processing operator 300/645 - CPU: 42341.79 MB, GPU: 32.6935 GB free
Operator 300: 71334 Pauli terms -> 26788 cliques (efficiency: 37.6%) - Memory: 113.70 MB
  STL Containers: PauliMap=86.38MB, CommOps=48.57MB, Cliques=1.77MB
  Container Overhead: PauliMap=1.0x, CommOps=9.9x
  Container Details: CommOps size=71334, capacity=707324, PauliMap size=707324, buckets=712697
  Accumulated Data: Coeffs=326.54MB, ZMasks=326.54MB, Observables=190.53MB
  Circuit Construction: +161.28 MB (26788 circuits)
  Cumulative Circuit Memory: 39643.77 MB
  Memory/Clique: 0.006 MB (prev: 0.006 MB)
  → Memory delta: CPU +167.85 MB, GPU +26.00 MB [1.5x]
Processing operator 301/645 - CPU: 42503.26 MB, GPU: 32.6681 GB free
Operator 301: 75240 Pauli terms -> 31587 cliques (efficiency: 42.0%) - Memory: 122.24 MB
  STL Containers: PauliMap=97.85MB, CommOps=52.09MB, Cliques=2.02MB
  Container Overhead: PauliMap=1.0x, CommOps=10.1x
  Container Details: CommOps size=75240, capacity=758576, PauliMap size=758576, buckets=1447153
  Accumulated Data: Coeffs=345.57MB, ZMasks=345.57MB, Observables=191.35MB
  Circuit Construction: +197.65 MB (31587 circuits)
  Cumulative Circuit Memory: 39841.42 MB
  Memory/Clique: 0.006 MB (prev: 0.006 MB)
  → Memory delta: CPU +221.23 MB, GPU +32.00 MB [1.8x]
Processing operator 302/645 - CPU: 42718.28 MB, GPU: 32.6368 GB free
Operator 302: 77680 Pauli terms -> 24394 cliques (efficiency: 31.4%) - Memory: 118.14 MB
  STL Containers: PauliMap=95.29MB, CommOps=50.55MB, Cliques=1.71MB
  Container Overhead: PauliMap=1.0x, CommOps=9.5x
  Container Details: CommOps size=77680, capacity=736159, PauliMap size=736159, buckets=1447153
  Accumulated Data: Coeffs=357.96MB, ZMasks=357.96MB, Observables=192.31MB
  Circuit Construction: +148.51 MB (24394 circuits)
  Cumulative Circuit Memory: 39989.93 MB
  Memory/Clique: 0.006 MB (prev: 0.006 MB)
  → Memory delta: CPU +166.75 MB, GPU +24.00 MB [1.4x]
Processing operator 303/645 - CPU: 42878.45 MB, GPU: 32.6134 GB free
Operator 303: 77680 Pauli terms -> 24096 cliques (efficiency: 31.0%) - Memory: 117.44 MB
  STL Containers: PauliMap=94.77MB, CommOps=50.24MB, Cliques=1.70MB
  Container Overhead: PauliMap=1.0x, CommOps=9.4x
  Container Details: CommOps size=77680, capacity=731647, PauliMap size=731647, buckets=1447153
  Accumulated Data: Coeffs=359.15MB, ZMasks=359.15MB, Observables=193.05MB
  Circuit Construction: +149.58 MB (24096 circuits)
  Cumulative Circuit Memory: 40139.50 MB
  Memory/Clique: 0.006 MB (prev: 0.006 MB)
  → Memory delta: CPU +167.54 MB, GPU +24.00 MB [1.4x]
Processing operator 304/645 - CPU: 43039.62 MB, GPU: 32.5900 GB free
Operator 304: 77680 Pauli terms -> 24476 cliques (efficiency: 31.5%) - Memory: 118.18 MB
  STL Containers: PauliMap=95.31MB, CommOps=50.56MB, Cliques=1.71MB
  Container Overhead: PauliMap=1.0x, CommOps=9.5x
  Container Details: CommOps size=77680, capacity=736367, PauliMap size=736367, buckets=1447153
  Accumulated Data: Coeffs=360.33MB, ZMasks=360.33MB, Observables=193.79MB
  Circuit Construction: +152.66 MB (24476 circuits)
  Cumulative Circuit Memory: 40292.16 MB
  Memory/Clique: 0.006 MB (prev: 0.006 MB)
  → Memory delta: CPU +171.15 MB, GPU +26.00 MB [1.4x]
Processing operator 305/645 - CPU: 43203.93 MB, GPU: 32.5646 GB free
Operator 305: 77680 Pauli terms -> 26019 cliques (efficiency: 33.5%) - Memory: 118.73 MB
  STL Containers: PauliMap=95.56MB, CommOps=50.71MB, Cliques=1.78MB
  Container Overhead: PauliMap=1.0x, CommOps=9.5x
  Container Details: CommOps size=77680, capacity=738527, PauliMap size=738527, buckets=1447153
  Accumulated Data: Coeffs=361.52MB, ZMasks=361.52MB, Observables=194.54MB
  Circuit Construction: +159.08 MB (26019 circuits)
  Cumulative Circuit Memory: 40451.25 MB
  Memory/Clique: 0.006 MB (prev: 0.006 MB)
  → Memory delta: CPU +177.69 MB, GPU +26.00 MB [1.5x]
Processing operator 306/645 - CPU: 43375.04 MB, GPU: 32.5392 GB free
