========================================
  NWQSim ADAPT-VQE Memory Profiling
========================================
CUDA detected. GPU information:
NVIDIA A100-SXM4-40GB, 40960, 40327, 1

Configuration:
  Input file: /global/homes/z/zhen002/NSMem/H2O_1.75_Eq_11-Orbitals_DUCC3_H2O-1.75_Eq_DUCC3_10-electrons_11-Orbitals.out-xacc
  Output file: memory_profile_output.log
  Build type: GPU-enabled ADAPT-VQE

Starting ADAPT-VQE with GPU memory profiling...
Output will be saved to: memory_profile_output.log

=== ADAPT-VQE Memory Profiling Session ===
Date: Fri 19 Sep 2025 10:07:14 AM PDT
System Info:
  CPU: AMD EPYC 7763 64-Core Processor
  Total RAM: 251Gi
  Available RAM: 227Gi
GPU Info:
NVIDIA A100-SXM4-40GB, 40960 MiB

=== Initial Memory State ===
CPU Memory:
               total        used        free      shared  buff/cache   available
Mem:           251Gi        24Gi       233Gi       694Mi       1.4Gi       227Gi
Swap:             0B          0B          0B
GPU Memory:
40960, 40327, 1

Starting simulation...
Reading Hamiltonian...
Constructed 33016 Pauli observables
Constructing the ansatz...
Starting with 10 Gates and 0 parameters
Beginning ADAPT-VQE loop...

=== ADAPT-VQE Memory Profiling (CPU + GPU) ===
Initial CPU memory:
  RSS (Resident Set Size): 255.66 MB
Initial GPU memory:
  Total GPU memory: 39.3812 GB
  Free GPU memory: 38.8380 GB
  Used GPU memory: 0.5432 GB

Starting UCCSD operator pool allocation...
  Pool size: 645 operators
  Hamiltonian terms: 7833
Processing operator 0/645 - CPU: 255.66 MB, GPU: 38.8380 GB free
Operator 0: 11136 Pauli terms -> 3077 cliques (efficiency: 27.6%) - Memory: 32.65 MB
  STL Containers (temp): PauliMap=27.21MB, CommOps=14.72MB, Cliques=0.23MB
  Container Overhead: PauliMap=1.0x, CommOps=19.2x
  Container Details: CommOps size=11136, capacity=214357, PauliMap size=214357, buckets=351061
  Accumulated Data: Coeffs=0.00MB, ZMasks=0.00MB, Observables=0.00MB
  Circuit + Temp Memory: +10.43 MB, Persistent Circuit: +9.68 MB, Cleaned Temp: 0.75 MB (cleanup: 1.8%)
  Cumulative Circuit Memory: 9.68 MB (Total circuits: 3077)
  Complete Ansatz Memory Breakdown:
    shared_ptr overhead: 0.19 KB
    theta (params): 0.02 KB (0/0)
    parameterized_gates: 0.02 KB (0/0)
    gate_parameter_pointers: 0.02 KB (nested structure)
    gate_coefficients: 0.02 KB (estimated)
    excitation_index_map: 0.06 KB (string map)
    circuit_gates: 10522.38 KB (61221/61221)
    object_overhead: 0.25 KB
    Total Ansatz Object: 10.276 MB
    Memory Efficiency: 100.0% (useful data vs total)
    Memory Hotspot: circuit_gates (100.0% of object)
  Memory/Clique: 0.003 MB
  → Net Memory Delta: CPU +10.62 MB, GPU +4.00 MB [Circuit: 9.7MB + Data: 32.6MB + Overhead: -31.7MB]
Processing operator 1/645 - CPU: 266.28 MB, GPU: 38.8341 GB free
Operator 1: 11136 Pauli terms -> 2962 cliques (efficiency: 26.6%) - Memory: 32.58 MB
  STL Containers (temp): PauliMap=27.17MB, CommOps=14.69MB, Cliques=0.22MB
  Container Overhead: PauliMap=1.0x, CommOps=19.2x
  Container Details: CommOps size=11136, capacity=214009, PauliMap size=214009, buckets=351061
  Accumulated Data: Coeffs=0.17MB, ZMasks=0.17MB, Observables=0.09MB
  Circuit + Temp Memory: +32.34 MB, Persistent Circuit: +32.34 MB, Cleaned Temp: 0.00 MB (cleanup: 0.0%)
  Cumulative Circuit Memory: 42.02 MB (Total circuits: 6039)
  Complete Ansatz Memory Breakdown:
    shared_ptr overhead: 0.19 KB
    theta (params): 0.02 KB (0/0)
    parameterized_gates: 0.02 KB (0/0)
    gate_parameter_pointers: 0.02 KB (nested structure)
    gate_coefficients: 0.02 KB (estimated)
    excitation_index_map: 0.06 KB (string map)
    circuit_gates: 10370.27 KB (60336/60336)
    object_overhead: 0.25 KB
    Total Ansatz Object: 10.128 MB
    Memory Efficiency: 100.0% (useful data vs total)
    Memory Hotspot: circuit_gates (100.0% of object)
  Memory/Clique: 0.011 MB (prev: 0.003 MB)
  → Net Memory Delta: CPU +33.11 MB, GPU +4.00 MB [Circuit: 32.3MB + Data: 32.6MB + Overhead: -31.8MB]
Processing operator 2/645 - CPU: 299.39 MB, GPU: 38.8302 GB free
Operator 2: 11136 Pauli terms -> 2991 cliques (efficiency: 26.9%) - Memory: 32.73 MB
  STL Containers (temp): PauliMap=27.29MB, CommOps=14.77MB, Cliques=0.22MB
  Container Overhead: PauliMap=1.0x, CommOps=19.3x
  Container Details: CommOps size=11136, capacity=215041, PauliMap size=215041, buckets=351061
  Accumulated Data: Coeffs=0.34MB, ZMasks=0.34MB, Observables=0.18MB
  Circuit + Temp Memory: +36.43 MB, Persistent Circuit: +36.43 MB, Cleaned Temp: 0.00 MB (cleanup: 0.0%)
  Cumulative Circuit Memory: 78.45 MB (Total circuits: 9030)
  Complete Ansatz Memory Breakdown:
    shared_ptr overhead: 0.19 KB
    theta (params): 0.02 KB (0/0)
    parameterized_gates: 0.02 KB (0/0)
    gate_parameter_pointers: 0.02 KB (nested structure)
    gate_coefficients: 0.02 KB (estimated)
    excitation_index_map: 0.06 KB (string map)
    circuit_gates: 10598.70 KB (61665/61665)
    object_overhead: 0.25 KB
    Total Ansatz Object: 10.351 MB
    Memory Efficiency: 100.0% (useful data vs total)
    Memory Hotspot: circuit_gates (100.0% of object)
  Memory/Clique: 0.012 MB (prev: 0.011 MB)
  → Net Memory Delta: CPU +36.43 MB, GPU +2.00 MB [Circuit: 36.4MB + Data: 32.7MB + Overhead: -32.7MB]
Processing operator 3/645 - CPU: 335.82 MB, GPU: 38.8282 GB free
Operator 3: 11136 Pauli terms -> 3037 cliques (efficiency: 27.3%) - Memory: 32.89 MB
  STL Containers (temp): PauliMap=27.41MB, CommOps=14.84MB, Cliques=0.22MB
  Container Overhead: PauliMap=1.0x, CommOps=19.4x
  Container Details: CommOps size=11136, capacity=216109, PauliMap size=216109, buckets=351061
  Accumulated Data: Coeffs=0.51MB, ZMasks=0.51MB, Observables=0.28MB
  Circuit + Temp Memory: +2.06 MB, Persistent Circuit: +2.06 MB, Cleaned Temp: 0.00 MB (cleanup: 0.0%)
  Cumulative Circuit Memory: 80.51 MB (Total circuits: 12067)
  Complete Ansatz Memory Breakdown:
    shared_ptr overhead: 0.19 KB
    theta (params): 0.02 KB (0/0)
    parameterized_gates: 0.02 KB (0/0)
    gate_parameter_pointers: 0.02 KB (nested structure)
    gate_coefficients: 0.02 KB (estimated)
    excitation_index_map: 0.06 KB (string map)
    circuit_gates: 10695.63 KB (62229/62229)
    object_overhead: 0.25 KB
    Total Ansatz Object: 10.446 MB
    Memory Efficiency: 100.0% (useful data vs total)
    Memory Hotspot: circuit_gates (100.0% of object)
  Memory/Clique: 0.001 MB (prev: 0.012 MB)
  → Net Memory Delta: CPU +4.64 MB, GPU +4.00 MB [Circuit: 2.1MB + Data: 32.9MB + Overhead: -30.3MB]
Processing operator 4/645 - CPU: 340.46 MB, GPU: 38.8243 GB free
Operator 4: 11136 Pauli terms -> 3064 cliques (efficiency: 27.5%) - Memory: 32.67 MB
  STL Containers (temp): PauliMap=27.23MB, CommOps=14.73MB, Cliques=0.23MB
  Container Overhead: PauliMap=1.0x, CommOps=19.3x
  Container Details: CommOps size=11136, capacity=214549, PauliMap size=214549, buckets=351061
  Accumulated Data: Coeffs=0.68MB, ZMasks=0.68MB, Observables=0.37MB
  Circuit + Temp Memory: +21.82 MB, Persistent Circuit: +21.95 MB, Cleaned Temp: -0.12 MB (cleanup: -0.3%)
  Cumulative Circuit Memory: 102.46 MB (Total circuits: 15131)
  Complete Ansatz Memory Breakdown:
    shared_ptr overhead: 0.19 KB
    theta (params): 0.02 KB (0/0)
    parameterized_gates: 0.02 KB (0/0)
    gate_parameter_pointers: 0.02 KB (nested structure)
    gate_coefficients: 0.02 KB (estimated)
    excitation_index_map: 0.06 KB (string map)
    circuit_gates: 10803.05 KB (62854/62854)
    object_overhead: 0.25 KB
    Total Ansatz Object: 10.550 MB
    Memory Efficiency: 100.0% (useful data vs total)
    Memory Hotspot: circuit_gates (100.0% of object)
  Memory/Clique: 0.007 MB (prev: 0.001 MB)
  → Net Memory Delta: CPU +22.21 MB, GPU +2.00 MB [Circuit: 21.9MB + Data: 32.7MB + Overhead: -32.4MB]
Processing operator 5/645 - CPU: 362.68 MB, GPU: 38.8224 GB free
Operator 5: 9384 Pauli terms -> 3152 cliques (efficiency: 33.6%) - Memory: 34.09 MB
  STL Containers (temp): PauliMap=28.47MB, CommOps=15.48MB, Cliques=0.22MB
  Container Overhead: PauliMap=1.0x, CommOps=24.0x
  Container Details: CommOps size=9384, capacity=225412, PauliMap size=225412, buckets=351061
  Accumulated Data: Coeffs=0.72MB, ZMasks=0.72MB, Observables=0.46MB
  Circuit + Temp Memory: +2.23 MB, Persistent Circuit: +2.23 MB, Cleaned Temp: 0.00 MB (cleanup: 0.0%)
  Cumulative Circuit Memory: 104.69 MB (Total circuits: 18283)
  Complete Ansatz Memory Breakdown:
    shared_ptr overhead: 0.19 KB
    theta (params): 0.02 KB (0/0)
    parameterized_gates: 0.02 KB (0/0)
    gate_parameter_pointers: 0.02 KB (nested structure)
    gate_coefficients: 0.02 KB (estimated)
    excitation_index_map: 0.06 KB (string map)
    circuit_gates: 11221.40 KB (65288/65288)
    object_overhead: 0.25 KB
    Total Ansatz Object: 10.959 MB
    Memory Efficiency: 100.0% (useful data vs total)
    Memory Hotspot: circuit_gates (100.0% of object)
  Memory/Clique: 0.001 MB (prev: 0.007 MB)
  → Net Memory Delta: CPU +3.04 MB, GPU +4.00 MB [Circuit: 2.2MB + Data: 34.1MB + Overhead: -33.3MB]
Processing operator 6/645 - CPU: 365.72 MB, GPU: 38.8185 GB free
Operator 6: 11136 Pauli terms -> 2949 cliques (efficiency: 26.5%) - Memory: 32.63 MB
  STL Containers (temp): PauliMap=27.21MB, CommOps=14.72MB, Cliques=0.22MB
  Container Overhead: PauliMap=1.0x, CommOps=19.2x
  Container Details: CommOps size=11136, capacity=214365, PauliMap size=214365, buckets=351061
  Accumulated Data: Coeffs=1.02MB, ZMasks=1.02MB, Observables=0.56MB
  Circuit + Temp Memory: +22.27 MB, Persistent Circuit: +22.27 MB, Cleaned Temp: 0.00 MB (cleanup: 0.0%)
  Cumulative Circuit Memory: 126.96 MB (Total circuits: 21232)
  Complete Ansatz Memory Breakdown:
    shared_ptr overhead: 0.19 KB
    theta (params): 0.02 KB (0/0)
    parameterized_gates: 0.02 KB (0/0)
    gate_parameter_pointers: 0.02 KB (nested structure)
    gate_coefficients: 0.02 KB (estimated)
    excitation_index_map: 0.06 KB (string map)
    circuit_gates: 10218.51 KB (59453/59453)
    object_overhead: 0.25 KB
    Total Ansatz Object: 9.980 MB
    Memory Efficiency: 100.0% (useful data vs total)
    Memory Hotspot: circuit_gates (100.0% of object)
  Memory/Clique: 0.008 MB (prev: 0.001 MB)
  → Net Memory Delta: CPU +22.27 MB, GPU +2.00 MB [Circuit: 22.3MB + Data: 32.6MB + Overhead: -32.6MB]
Processing operator 7/645 - CPU: 387.99 MB, GPU: 38.8165 GB free
Operator 7: 11136 Pauli terms -> 2871 cliques (efficiency: 25.8%) - Memory: 32.58 MB
  STL Containers (temp): PauliMap=27.18MB, CommOps=14.70MB, Cliques=0.22MB
  Container Overhead: PauliMap=1.0x, CommOps=19.2x
  Container Details: CommOps size=11136, capacity=214101, PauliMap size=214101, buckets=351061
  Accumulated Data: Coeffs=1.19MB, ZMasks=1.19MB, Observables=0.65MB
  Circuit + Temp Memory: +10.30 MB, Persistent Circuit: +10.30 MB, Cleaned Temp: 0.00 MB (cleanup: 0.0%)
  Cumulative Circuit Memory: 137.25 MB (Total circuits: 24103)
  Complete Ansatz Memory Breakdown:
    shared_ptr overhead: 0.19 KB
    theta (params): 0.02 KB (0/0)
    parameterized_gates: 0.02 KB (0/0)
    gate_parameter_pointers: 0.02 KB (nested structure)
    gate_coefficients: 0.02 KB (estimated)
    excitation_index_map: 0.06 KB (string map)
    circuit_gates: 10095.10 KB (58735/58735)
    object_overhead: 0.25 KB
    Total Ansatz Object: 9.859 MB
    Memory Efficiency: 100.0% (useful data vs total)
    Memory Hotspot: circuit_gates (100.0% of object)
  Memory/Clique: 0.004 MB (prev: 0.008 MB)
  → Net Memory Delta: CPU +13.32 MB, GPU +4.00 MB [Circuit: 10.3MB + Data: 32.6MB + Overhead: -29.6MB]
Processing operator 8/645 - CPU: 401.31 MB, GPU: 38.8126 GB free
Operator 8: 11136 Pauli terms -> 2935 cliques (efficiency: 26.4%) - Memory: 32.72 MB
  STL Containers (temp): PauliMap=27.28MB, CommOps=14.76MB, Cliques=0.22MB
  Container Overhead: PauliMap=1.0x, CommOps=19.3x
  Container Details: CommOps size=11136, capacity=214997, PauliMap size=214997, buckets=351061
  Accumulated Data: Coeffs=1.36MB, ZMasks=1.36MB, Observables=0.74MB
  Circuit + Temp Memory: +24.07 MB, Persistent Circuit: +24.07 MB, Cleaned Temp: 0.00 MB (cleanup: 0.0%)
  Cumulative Circuit Memory: 161.33 MB (Total circuits: 27038)
  Complete Ansatz Memory Breakdown:
    shared_ptr overhead: 0.19 KB
    theta (params): 0.02 KB (0/0)
    parameterized_gates: 0.02 KB (0/0)
    gate_parameter_pointers: 0.02 KB (nested structure)
    gate_coefficients: 0.02 KB (estimated)
    excitation_index_map: 0.06 KB (string map)
    circuit_gates: 10420.63 KB (60629/60629)
    object_overhead: 0.25 KB
    Total Ansatz Object: 10.177 MB
    Memory Efficiency: 100.0% (useful data vs total)
    Memory Hotspot: circuit_gates (100.0% of object)
  Memory/Clique: 0.008 MB (prev: 0.004 MB)
  → Net Memory Delta: CPU +24.85 MB, GPU +2.00 MB [Circuit: 24.1MB + Data: 32.7MB + Overhead: -31.9MB]
Processing operator 9/645 - CPU: 426.16 MB, GPU: 38.8107 GB free
Operator 9: 11136 Pauli terms -> 2988 cliques (efficiency: 26.8%) - Memory: 32.82 MB
  STL Containers (temp): PauliMap=27.36MB, CommOps=14.81MB, Cliques=0.22MB
  Container Overhead: PauliMap=1.0x, CommOps=19.4x
  Container Details: CommOps size=11136, capacity=215669, PauliMap size=215669, buckets=351061
  Accumulated Data: Coeffs=1.53MB, ZMasks=1.53MB, Observables=0.83MB
  Circuit + Temp Memory: +24.32 MB, Persistent Circuit: +24.32 MB, Cleaned Temp: 0.00 MB (cleanup: 0.0%)
  Cumulative Circuit Memory: 185.65 MB (Total circuits: 30026)
  Complete Ansatz Memory Breakdown:
    shared_ptr overhead: 0.19 KB
    theta (params): 0.02 KB (0/0)
    parameterized_gates: 0.02 KB (0/0)
    gate_parameter_pointers: 0.02 KB (nested structure)
    gate_coefficients: 0.02 KB (estimated)
    excitation_index_map: 0.06 KB (string map)
    circuit_gates: 10581.68 KB (61566/61566)
    object_overhead: 0.25 KB
    Total Ansatz Object: 10.334 MB
    Memory Efficiency: 100.0% (useful data vs total)
    Memory Hotspot: circuit_gates (100.0% of object)
  Memory/Clique: 0.008 MB (prev: 0.008 MB)
  → Net Memory Delta: CPU +25.09 MB, GPU +4.00 MB [Circuit: 24.3MB + Data: 32.8MB + Overhead: -32.1MB]

--- SUMMARY: Operators 0-9 ---
  Batch Memory Growth: +195.60 MB
  Pauli Terms Generated: 109608
  Commuting Groups: 30026
  Average Efficiency: 27.5%
  Cumulative Memory: 451.25 MB
  Average Memory/Operator: 19.56 MB
  Theoretical Memory/Op: 0.62 MB (bloat factor: 31.7x)
  Memory Growth Rate: 19.6 MB/op
  Memory Bloat Factor: 31.7x
  System Memory Pressure: 10.0%
--- END SUMMARY ---

Processing operator 10/645 - CPU: 451.25 MB, GPU: 38.8068 GB free
Operator 10: 11136 Pauli terms -> 3049 cliques (efficiency: 27.4%) - Memory: 32.71 MB
  STL Containers (temp): PauliMap=27.26MB, CommOps=14.75MB, Cliques=0.22MB
  Container Overhead: PauliMap=1.0x, CommOps=19.3x
  Container Details: CommOps size=11136, capacity=214797, PauliMap size=214797, buckets=351061
  Accumulated Data: Coeffs=1.70MB, ZMasks=1.70MB, Observables=0.92MB
  Circuit + Temp Memory: +11.80 MB, Persistent Circuit: +11.80 MB, Cleaned Temp: 0.00 MB (cleanup: 0.0%)
  Cumulative Circuit Memory: 197.45 MB (Total circuits: 33075)
  Complete Ansatz Memory Breakdown:
    shared_ptr overhead: 0.19 KB
    theta (params): 0.02 KB (0/0)
    parameterized_gates: 0.02 KB (0/0)
    gate_parameter_pointers: 0.02 KB (nested structure)
    gate_coefficients: 0.02 KB (estimated)
    excitation_index_map: 0.06 KB (string map)
    circuit_gates: 10752.70 KB (62561/62561)
    object_overhead: 0.25 KB
    Total Ansatz Object: 10.501 MB
    Memory Efficiency: 100.0% (useful data vs total)
    Memory Hotspot: circuit_gates (100.0% of object)
  Memory/Clique: 0.004 MB (prev: 0.008 MB)
  → Net Memory Delta: CPU +13.80 MB, GPU +2.00 MB [Circuit: 11.8MB + Data: 32.7MB + Overhead: -30.7MB]
Processing operator 11/645 - CPU: 465.05 MB, GPU: 38.8048 GB free
Operator 11: 9384 Pauli terms -> 3047 cliques (efficiency: 32.5%) - Memory: 34.05 MB
  STL Containers (temp): PauliMap=28.46MB, CommOps=15.47MB, Cliques=0.21MB
  Container Overhead: PauliMap=1.0x, CommOps=24.0x
  Container Details: CommOps size=9384, capacity=225248, PauliMap size=225248, buckets=351061
  Accumulated Data: Coeffs=1.58MB, ZMasks=1.58MB, Observables=1.01MB
  Circuit + Temp Memory: +24.02 MB, Persistent Circuit: +24.02 MB, Cleaned Temp: 0.00 MB (cleanup: 0.0%)
  Cumulative Circuit Memory: 221.46 MB (Total circuits: 36122)
  Complete Ansatz Memory Breakdown:
    shared_ptr overhead: 0.19 KB
    theta (params): 0.02 KB (0/0)
    parameterized_gates: 0.02 KB (0/0)
    gate_parameter_pointers: 0.02 KB (nested structure)
    gate_coefficients: 0.02 KB (estimated)
    excitation_index_map: 0.06 KB (string map)
    circuit_gates: 11062.07 KB (64361/64361)
    object_overhead: 0.25 KB
    Total Ansatz Object: 10.803 MB
    Memory Efficiency: 100.0% (useful data vs total)
    Memory Hotspot: circuit_gates (100.0% of object)
  Memory/Clique: 0.008 MB (prev: 0.004 MB)
  → Net Memory Delta: CPU +26.02 MB, GPU +4.00 MB [Circuit: 24.0MB + Data: 34.0MB + Overhead: -32.0MB]
Processing operator 12/645 - CPU: 491.07 MB, GPU: 38.8009 GB free
Operator 12: 11136 Pauli terms -> 2913 cliques (efficiency: 26.2%) - Memory: 32.80 MB
  STL Containers (temp): PauliMap=27.35MB, CommOps=14.80MB, Cliques=0.22MB
  Container Overhead: PauliMap=1.0x, CommOps=19.4x
  Container Details: CommOps size=11136, capacity=215573, PauliMap size=215573, buckets=351061
  Accumulated Data: Coeffs=2.04MB, ZMasks=2.04MB, Observables=1.10MB
  Circuit + Temp Memory: +12.03 MB, Persistent Circuit: +12.03 MB, Cleaned Temp: 0.00 MB (cleanup: 0.0%)
  Cumulative Circuit Memory: 233.50 MB (Total circuits: 39035)
  Complete Ansatz Memory Breakdown:
    shared_ptr overhead: 0.19 KB
    theta (params): 0.02 KB (0/0)
    parameterized_gates: 0.02 KB (0/0)
    gate_parameter_pointers: 0.02 KB (nested structure)
    gate_coefficients: 0.02 KB (estimated)
    excitation_index_map: 0.06 KB (string map)
    circuit_gates: 10143.57 KB (59017/59017)
    object_overhead: 0.25 KB
    Total Ansatz Object: 9.906 MB
    Memory Efficiency: 100.0% (useful data vs total)
    Memory Hotspot: circuit_gates (100.0% of object)
  Memory/Clique: 0.004 MB (prev: 0.008 MB)
  → Net Memory Delta: CPU +12.03 MB, GPU +2.00 MB [Circuit: 12.0MB + Data: 32.8MB + Overhead: -32.8MB]
Processing operator 13/645 - CPU: 503.10 MB, GPU: 38.7990 GB free
Operator 13: 11136 Pauli terms -> 2905 cliques (efficiency: 26.1%) - Memory: 32.72 MB
  STL Containers (temp): PauliMap=27.29MB, CommOps=14.76MB, Cliques=0.22MB
  Container Overhead: PauliMap=1.0x, CommOps=19.3x
  Container Details: CommOps size=11136, capacity=215021, PauliMap size=215021, buckets=351061
  Accumulated Data: Coeffs=2.21MB, ZMasks=2.21MB, Observables=1.19MB
  Circuit + Temp Memory: +12.80 MB, Persistent Circuit: +12.80 MB, Cleaned Temp: 0.00 MB (cleanup: 0.0%)
  Cumulative Circuit Memory: 246.29 MB (Total circuits: 41940)
  Complete Ansatz Memory Breakdown:
    shared_ptr overhead: 0.19 KB
    theta (params): 0.02 KB (0/0)
    parameterized_gates: 0.02 KB (0/0)
    gate_parameter_pointers: 0.02 KB (nested structure)
    gate_coefficients: 0.02 KB (estimated)
    excitation_index_map: 0.06 KB (string map)
    circuit_gates: 10184.13 KB (59253/59253)
    object_overhead: 0.25 KB
    Total Ansatz Object: 9.946 MB
    Memory Efficiency: 100.0% (useful data vs total)
    Memory Hotspot: circuit_gates (100.0% of object)
  Memory/Clique: 0.004 MB (prev: 0.004 MB)
  → Net Memory Delta: CPU +12.80 MB, GPU +4.00 MB [Circuit: 12.8MB + Data: 32.7MB + Overhead: -32.7MB]
Processing operator 14/645 - CPU: 515.90 MB, GPU: 38.7950 GB free
Operator 14: 11136 Pauli terms -> 2941 cliques (efficiency: 26.4%) - Memory: 32.87 MB
  STL Containers (temp): PauliMap=27.41MB, CommOps=14.84MB, Cliques=0.22MB
  Container Overhead: PauliMap=1.0x, CommOps=19.4x
  Container Details: CommOps size=11136, capacity=216065, PauliMap size=216065, buckets=351061
  Accumulated Data: Coeffs=2.38MB, ZMasks=2.38MB, Observables=1.28MB
  Circuit + Temp Memory: +12.25 MB, Persistent Circuit: +12.25 MB, Cleaned Temp: 0.00 MB (cleanup: 0.0%)
  Cumulative Circuit Memory: 258.55 MB (Total circuits: 44881)
  Complete Ansatz Memory Breakdown:
    shared_ptr overhead: 0.19 KB
    theta (params): 0.02 KB (0/0)
    parameterized_gates: 0.02 KB (0/0)
    gate_parameter_pointers: 0.02 KB (nested structure)
    gate_coefficients: 0.02 KB (estimated)
    excitation_index_map: 0.06 KB (string map)
    circuit_gates: 10341.57 KB (60169/60169)
    object_overhead: 0.25 KB
    Total Ansatz Object: 10.100 MB
    Memory Efficiency: 100.0% (useful data vs total)
    Memory Hotspot: circuit_gates (100.0% of object)
  Memory/Clique: 0.004 MB (prev: 0.004 MB)
  → Net Memory Delta: CPU +13.02 MB, GPU +2.00 MB [Circuit: 12.3MB + Data: 32.9MB + Overhead: -32.1MB]
Processing operator 15/645 - CPU: 528.92 MB, GPU: 38.7931 GB free
Operator 15: 11136 Pauli terms -> 2970 cliques (efficiency: 26.7%) - Memory: 32.98 MB
  STL Containers (temp): PauliMap=27.49MB, CommOps=14.89MB, Cliques=0.22MB
  Container Overhead: PauliMap=1.0x, CommOps=19.5x
  Container Details: CommOps size=11136, capacity=216801, PauliMap size=216801, buckets=351061
  Accumulated Data: Coeffs=2.55MB, ZMasks=2.55MB, Observables=1.37MB
  Circuit + Temp Memory: +18.08 MB, Persistent Circuit: +18.08 MB, Cleaned Temp: 0.00 MB (cleanup: 0.0%)
  Cumulative Circuit Memory: 276.62 MB (Total circuits: 47851)
  Complete Ansatz Memory Breakdown:
    shared_ptr overhead: 0.19 KB
    theta (params): 0.02 KB (0/0)
    parameterized_gates: 0.02 KB (0/0)
    gate_parameter_pointers: 0.02 KB (nested structure)
    gate_coefficients: 0.02 KB (estimated)
    excitation_index_map: 0.06 KB (string map)
    circuit_gates: 10514.30 KB (61174/61174)
    object_overhead: 0.25 KB
    Total Ansatz Object: 10.268 MB
    Memory Efficiency: 100.0% (useful data vs total)
    Memory Hotspot: circuit_gates (100.0% of object)
  Memory/Clique: 0.006 MB (prev: 0.004 MB)
  → Net Memory Delta: CPU +18.08 MB, GPU +4.00 MB [Circuit: 18.1MB + Data: 33.0MB + Overhead: -33.0MB]
Processing operator 16/645 - CPU: 547.00 MB, GPU: 38.7892 GB free
Operator 16: 11136 Pauli terms -> 3082 cliques (efficiency: 27.7%) - Memory: 32.83 MB
  STL Containers (temp): PauliMap=27.36MB, CommOps=14.81MB, Cliques=0.23MB
  Container Overhead: PauliMap=1.0x, CommOps=19.4x
  Container Details: CommOps size=11136, capacity=215629, PauliMap size=215629, buckets=351061
  Accumulated Data: Coeffs=2.72MB, ZMasks=2.72MB, Observables=1.46MB
  Circuit + Temp Memory: +10.52 MB, Persistent Circuit: +10.52 MB, Cleaned Temp: 0.00 MB (cleanup: 0.0%)
  Cumulative Circuit Memory: 287.14 MB (Total circuits: 50933)
  Complete Ansatz Memory Breakdown:
    shared_ptr overhead: 0.19 KB
    theta (params): 0.02 KB (0/0)
    parameterized_gates: 0.02 KB (0/0)
    gate_parameter_pointers: 0.02 KB (nested structure)
    gate_coefficients: 0.02 KB (estimated)
    excitation_index_map: 0.06 KB (string map)
    circuit_gates: 10880.05 KB (63302/63302)
    object_overhead: 0.25 KB
    Total Ansatz Object: 10.626 MB
    Memory Efficiency: 100.0% (useful data vs total)
    Memory Hotspot: circuit_gates (100.0% of object)
  Memory/Clique: 0.003 MB (prev: 0.006 MB)
  → Net Memory Delta: CPU +10.52 MB, GPU +2.00 MB [Circuit: 10.5MB + Data: 32.8MB + Overhead: -32.8MB]
Processing operator 17/645 - CPU: 557.52 MB, GPU: 38.7872 GB free
Operator 17: 9384 Pauli terms -> 3050 cliques (efficiency: 32.5%) - Memory: 34.22 MB
  STL Containers (temp): PauliMap=28.59MB, CommOps=15.55MB, Cliques=0.21MB
  Container Overhead: PauliMap=1.0x, CommOps=24.1x
  Container Details: CommOps size=9384, capacity=226440, PauliMap size=226440, buckets=351061
  Accumulated Data: Coeffs=2.43MB, ZMasks=2.43MB, Observables=1.55MB
  Circuit + Temp Memory: +27.12 MB, Persistent Circuit: +27.37 MB, Cleaned Temp: -0.25 MB (cleanup: -0.6%)
  Cumulative Circuit Memory: 314.51 MB (Total circuits: 53983)
  Complete Ansatz Memory Breakdown:
    shared_ptr overhead: 0.19 KB
    theta (params): 0.02 KB (0/0)
    parameterized_gates: 0.02 KB (0/0)
    gate_parameter_pointers: 0.02 KB (nested structure)
    gate_coefficients: 0.02 KB (estimated)
    excitation_index_map: 0.06 KB (string map)
    circuit_gates: 10991.77 KB (63952/63952)
    object_overhead: 0.25 KB
    Total Ansatz Object: 10.735 MB
    Memory Efficiency: 100.0% (useful data vs total)
    Memory Hotspot: circuit_gates (100.0% of object)
  Memory/Clique: 0.009 MB (prev: 0.003 MB)
  → Net Memory Delta: CPU +27.61 MB, GPU +4.00 MB [Circuit: 27.4MB + Data: 34.2MB + Overhead: -34.0MB]
Processing operator 18/645 - CPU: 585.12 MB, GPU: 38.7833 GB free
Operator 18: 9384 Pauli terms -> 2568 cliques (efficiency: 27.4%) - Memory: 34.03 MB
  STL Containers (temp): PauliMap=28.50MB, CommOps=15.49MB, Cliques=0.19MB
  Container Overhead: PauliMap=1.0x, CommOps=24.0x
  Container Details: CommOps size=9384, capacity=225616, PauliMap size=225616, buckets=351061
  Accumulated Data: Coeffs=2.58MB, ZMasks=2.58MB, Observables=1.65MB
  Circuit + Temp Memory: +12.94 MB, Persistent Circuit: +12.94 MB, Cleaned Temp: 0.00 MB (cleanup: 0.0%)
  Cumulative Circuit Memory: 327.45 MB (Total circuits: 56551)
  Complete Ansatz Memory Breakdown:
    shared_ptr overhead: 0.19 KB
    theta (params): 0.02 KB (0/0)
    parameterized_gates: 0.02 KB (0/0)
    gate_parameter_pointers: 0.02 KB (nested structure)
    gate_coefficients: 0.02 KB (estimated)
    excitation_index_map: 0.06 KB (string map)
    circuit_gates: 9365.84 KB (54492/54492)
    object_overhead: 0.25 KB
    Total Ansatz Object: 9.147 MB
    Memory Efficiency: 100.0% (useful data vs total)
    Memory Hotspot: circuit_gates (100.0% of object)
  Memory/Clique: 0.005 MB (prev: 0.009 MB)
  → Net Memory Delta: CPU +12.95 MB, GPU +2.00 MB [Circuit: 12.9MB + Data: 34.0MB + Overhead: -34.0MB]
Processing operator 19/645 - CPU: 598.07 MB, GPU: 38.7814 GB free
Operator 19: 9384 Pauli terms -> 2568 cliques (efficiency: 27.4%) - Memory: 33.94 MB
  STL Containers (temp): PauliMap=28.43MB, CommOps=15.45MB, Cliques=0.19MB
  Container Overhead: PauliMap=1.0x, CommOps=24.0x
  Container Details: CommOps size=9384, capacity=225000, PauliMap size=225000, buckets=351061
  Accumulated Data: Coeffs=2.72MB, ZMasks=2.72MB, Observables=1.73MB
  Circuit + Temp Memory: +18.07 MB, Persistent Circuit: +18.07 MB, Cleaned Temp: 0.00 MB (cleanup: 0.0%)
  Cumulative Circuit Memory: 345.52 MB (Total circuits: 59119)
  Complete Ansatz Memory Breakdown:
    shared_ptr overhead: 0.19 KB
    theta (params): 0.02 KB (0/0)
    parameterized_gates: 0.02 KB (0/0)
    gate_parameter_pointers: 0.02 KB (nested structure)
    gate_coefficients: 0.02 KB (estimated)
    excitation_index_map: 0.06 KB (string map)
    circuit_gates: 9394.37 KB (54658/54658)
    object_overhead: 0.25 KB
    Total Ansatz Object: 9.175 MB
    Memory Efficiency: 100.0% (useful data vs total)
    Memory Hotspot: circuit_gates (100.0% of object)
  Memory/Clique: 0.007 MB (prev: 0.005 MB)
  → Net Memory Delta: CPU +18.32 MB, GPU +2.00 MB [Circuit: 18.1MB + Data: 33.9MB + Overhead: -33.7MB]

--- SUMMARY: Operators 10-19 ---
  Batch Memory Growth: +165.13 MB
  Pauli Terms Generated: 104352
  Commuting Groups: 29093
  Average Efficiency: 28.0%
  Cumulative Memory: 616.39 MB
  Average Memory/Operator: 16.51 MB
  Theoretical Memory/Op: 0.59 MB (bloat factor: 27.8x)
  Memory Growth Rate: 16.5 MB/op
  Memory Bloat Factor: 27.8x
  System Memory Pressure: 10.1%
--- END SUMMARY ---

Processing operator 20/645 - CPU: 616.39 MB, GPU: 38.7794 GB free
Operator 20: 9384 Pauli terms -> 2614 cliques (efficiency: 27.9%) - Memory: 34.11 MB
  STL Containers (temp): PauliMap=28.56MB, CommOps=15.53MB, Cliques=0.19MB
  Container Overhead: PauliMap=1.0x, CommOps=24.1x
  Container Details: CommOps size=9384, capacity=226152, PauliMap size=226152, buckets=351061
  Accumulated Data: Coeffs=2.86MB, ZMasks=2.86MB, Observables=1.80MB
  Circuit + Temp Memory: +11.78 MB, Persistent Circuit: +11.93 MB, Cleaned Temp: -0.15 MB (cleanup: -0.3%)
  Cumulative Circuit Memory: 357.45 MB (Total circuits: 61733)
  Complete Ansatz Memory Breakdown:
    shared_ptr overhead: 0.19 KB
    theta (params): 0.02 KB (0/0)
    parameterized_gates: 0.02 KB (0/0)
    gate_parameter_pointers: 0.02 KB (nested structure)
    gate_coefficients: 0.02 KB (estimated)
    excitation_index_map: 0.06 KB (string map)
    circuit_gates: 9534.96 KB (55476/55476)
    object_overhead: 0.25 KB
    Total Ansatz Object: 9.312 MB
    Memory Efficiency: 100.0% (useful data vs total)
    Memory Hotspot: circuit_gates (100.0% of object)
  Memory/Clique: 0.005 MB (prev: 0.007 MB)
  → Net Memory Delta: CPU +12.59 MB, GPU +4.00 MB [Circuit: 11.9MB + Data: 34.1MB + Overhead: -33.5MB]
Processing operator 21/645 - CPU: 628.97 MB, GPU: 38.7755 GB free
Operator 21: 9384 Pauli terms -> 2636 cliques (efficiency: 28.1%) - Memory: 34.23 MB
  STL Containers (temp): PauliMap=28.65MB, CommOps=15.58MB, Cliques=0.19MB
  Container Overhead: PauliMap=1.0x, CommOps=24.2x
  Container Details: CommOps size=9384, capacity=226964, PauliMap size=226964, buckets=351061
  Accumulated Data: Coeffs=3.01MB, ZMasks=3.01MB, Observables=1.88MB
  Circuit + Temp Memory: +15.53 MB, Persistent Circuit: +15.53 MB, Cleaned Temp: 0.00 MB (cleanup: 0.0%)
  Cumulative Circuit Memory: 372.98 MB (Total circuits: 64369)
  Complete Ansatz Memory Breakdown:
    shared_ptr overhead: 0.19 KB
    theta (params): 0.02 KB (0/0)
    parameterized_gates: 0.02 KB (0/0)
    gate_parameter_pointers: 0.02 KB (nested structure)
    gate_coefficients: 0.02 KB (estimated)
    excitation_index_map: 0.06 KB (string map)
    circuit_gates: 9509.18 KB (55326/55326)
    object_overhead: 0.25 KB
    Total Ansatz Object: 9.287 MB
    Memory Efficiency: 100.0% (useful data vs total)
    Memory Hotspot: circuit_gates (100.0% of object)
  Memory/Clique: 0.006 MB (prev: 0.005 MB)
  → Net Memory Delta: CPU +19.86 MB, GPU +2.00 MB [Circuit: 15.5MB + Data: 34.2MB + Overhead: -29.9MB]
Processing operator 22/645 - CPU: 648.83 MB, GPU: 38.7736 GB free
Operator 22: 9384 Pauli terms -> 2731 cliques (efficiency: 29.1%) - Memory: 34.08 MB
  STL Containers (temp): PauliMap=28.52MB, CommOps=15.50MB, Cliques=0.20MB
  Container Overhead: PauliMap=1.0x, CommOps=24.1x
  Container Details: CommOps size=9384, capacity=225784, PauliMap size=225784, buckets=351061
  Accumulated Data: Coeffs=3.15MB, ZMasks=3.15MB, Observables=1.96MB
  Circuit + Temp Memory: +20.54 MB, Persistent Circuit: +20.54 MB, Cleaned Temp: 0.00 MB (cleanup: 0.0%)
  Cumulative Circuit Memory: 393.53 MB (Total circuits: 67100)
  Complete Ansatz Memory Breakdown:
    shared_ptr overhead: 0.19 KB
    theta (params): 0.02 KB (0/0)
    parameterized_gates: 0.02 KB (0/0)
    gate_parameter_pointers: 0.02 KB (nested structure)
    gate_coefficients: 0.02 KB (estimated)
    excitation_index_map: 0.06 KB (string map)
    circuit_gates: 9869.60 KB (57423/57423)
    object_overhead: 0.25 KB
    Total Ansatz Object: 9.639 MB
    Memory Efficiency: 100.0% (useful data vs total)
    Memory Hotspot: circuit_gates (100.0% of object)
  Memory/Clique: 0.008 MB (prev: 0.006 MB)
  → Net Memory Delta: CPU +20.78 MB, GPU +2.00 MB [Circuit: 20.5MB + Data: 34.1MB + Overhead: -33.8MB]
Processing operator 23/645 - CPU: 669.61 MB, GPU: 38.7716 GB free
Operator 23: 3912 Pauli terms -> 1117 cliques (efficiency: 28.6%) - Memory: 33.88 MB
  STL Containers (temp): PauliMap=28.99MB, CommOps=15.78MB, Cliques=0.08MB
  Container Overhead: PauliMap=1.0x, CommOps=58.8x
  Container Details: CommOps size=3912, capacity=229873, PauliMap size=229873, buckets=351061
  Accumulated Data: Coeffs=1.37MB, ZMasks=1.37MB, Observables=2.05MB
  Circuit + Temp Memory: +0.00 MB, Persistent Circuit: +0.00 MB, Cleaned Temp: 0.00 MB (cleanup: 0.0%)
  Cumulative Circuit Memory: 393.53 MB (Total circuits: 68217)
  Complete Ansatz Memory Breakdown:
    shared_ptr overhead: 0.19 KB
    theta (params): 0.02 KB (0/0)
    parameterized_gates: 0.02 KB (0/0)
    gate_parameter_pointers: 0.02 KB (nested structure)
    gate_coefficients: 0.02 KB (estimated)
    excitation_index_map: 0.06 KB (string map)
    circuit_gates: 3842.29 KB (22355/22355)
    object_overhead: 0.25 KB
    Total Ansatz Object: 3.753 MB
    Memory Efficiency: 100.0% (useful data vs total)
    Memory Hotspot: circuit_gates (100.0% of object)
  Memory/Clique: 0.000 MB (prev: 0.008 MB)
  → Net Memory Delta: CPU +0.00 MB, GPU +2.00 MB [Circuit: 0.0MB + Data: 33.9MB + Overhead: -33.9MB]
Processing operator 24/645 - CPU: 669.61 MB, GPU: 38.7697 GB free
Operator 24: 11136 Pauli terms -> 2998 cliques (efficiency: 26.9%) - Memory: 32.67 MB
  STL Containers (temp): PauliMap=27.24MB, CommOps=14.73MB, Cliques=0.22MB
  Container Overhead: PauliMap=1.0x, CommOps=19.3x
  Container Details: CommOps size=11136, capacity=214581, PauliMap size=214581, buckets=351061
  Accumulated Data: Coeffs=4.08MB, ZMasks=4.08MB, Observables=2.08MB
  Circuit + Temp Memory: +14.93 MB, Persistent Circuit: +15.13 MB, Cleaned Temp: -0.20 MB (cleanup: -0.5%)
  Cumulative Circuit Memory: 408.66 MB (Total circuits: 71215)
  Complete Ansatz Memory Breakdown:
    shared_ptr overhead: 0.19 KB
    theta (params): 0.02 KB (0/0)
    parameterized_gates: 0.02 KB (0/0)
    gate_parameter_pointers: 0.02 KB (nested structure)
    gate_coefficients: 0.02 KB (estimated)
    excitation_index_map: 0.06 KB (string map)
    circuit_gates: 10333.15 KB (60120/60120)
    object_overhead: 0.25 KB
    Total Ansatz Object: 10.092 MB
    Memory Efficiency: 100.0% (useful data vs total)
    Memory Hotspot: circuit_gates (100.0% of object)
  Memory/Clique: 0.005 MB (prev: 0.000 MB)
  → Net Memory Delta: CPU +15.27 MB, GPU +2.00 MB [Circuit: 15.1MB + Data: 32.7MB + Overhead: -32.5MB]
Processing operator 25/645 - CPU: 684.87 MB, GPU: 38.7677 GB free
Operator 25: 11136 Pauli terms -> 2865 cliques (efficiency: 25.7%) - Memory: 32.60 MB
  STL Containers (temp): PauliMap=27.20MB, CommOps=14.71MB, Cliques=0.22MB
  Container Overhead: PauliMap=1.0x, CommOps=19.2x
  Container Details: CommOps size=11136, capacity=214285, PauliMap size=214285, buckets=351061
  Accumulated Data: Coeffs=4.25MB, ZMasks=4.25MB, Observables=2.17MB
  Circuit + Temp Memory: +13.95 MB, Persistent Circuit: +13.95 MB, Cleaned Temp: 0.00 MB (cleanup: 0.0%)
  Cumulative Circuit Memory: 422.60 MB (Total circuits: 74080)
  Complete Ansatz Memory Breakdown:
    shared_ptr overhead: 0.19 KB
    theta (params): 0.02 KB (0/0)
    parameterized_gates: 0.02 KB (0/0)
    gate_parameter_pointers: 0.02 KB (nested structure)
    gate_coefficients: 0.02 KB (estimated)
    excitation_index_map: 0.06 KB (string map)
    circuit_gates: 10070.01 KB (58589/58589)
    object_overhead: 0.25 KB
    Total Ansatz Object: 9.835 MB
    Memory Efficiency: 100.0% (useful data vs total)
    Memory Hotspot: circuit_gates (100.0% of object)
  Memory/Clique: 0.005 MB (prev: 0.005 MB)
  → Net Memory Delta: CPU +13.95 MB, GPU +4.00 MB [Circuit: 13.9MB + Data: 32.6MB + Overhead: -32.6MB]
Processing operator 26/645 - CPU: 698.82 MB, GPU: 38.7638 GB free
Operator 26: 11136 Pauli terms -> 2936 cliques (efficiency: 26.4%) - Memory: 32.76 MB
  STL Containers (temp): PauliMap=27.31MB, CommOps=14.78MB, Cliques=0.22MB
  Container Overhead: PauliMap=1.0x, CommOps=19.3x
  Container Details: CommOps size=11136, capacity=215253, PauliMap size=215253, buckets=351061
  Accumulated Data: Coeffs=4.42MB, ZMasks=4.42MB, Observables=2.26MB
  Circuit + Temp Memory: +22.00 MB, Persistent Circuit: +22.00 MB, Cleaned Temp: 0.00 MB (cleanup: 0.0%)
  Cumulative Circuit Memory: 444.61 MB (Total circuits: 77016)
  Complete Ansatz Memory Breakdown:
    shared_ptr overhead: 0.19 KB
    theta (params): 0.02 KB (0/0)
    parameterized_gates: 0.02 KB (0/0)
    gate_parameter_pointers: 0.02 KB (nested structure)
    gate_coefficients: 0.02 KB (estimated)
    excitation_index_map: 0.06 KB (string map)
    circuit_gates: 10326.96 KB (60084/60084)
    object_overhead: 0.25 KB
    Total Ansatz Object: 10.086 MB
    Memory Efficiency: 100.0% (useful data vs total)
    Memory Hotspot: circuit_gates (100.0% of object)
  Memory/Clique: 0.007 MB (prev: 0.005 MB)
  → Net Memory Delta: CPU +24.00 MB, GPU +2.00 MB [Circuit: 22.0MB + Data: 32.8MB + Overhead: -30.8MB]
Processing operator 27/645 - CPU: 722.82 MB, GPU: 38.7618 GB free
Operator 27: 11136 Pauli terms -> 2984 cliques (efficiency: 26.8%) - Memory: 32.87 MB
  STL Containers (temp): PauliMap=27.40MB, CommOps=14.83MB, Cliques=0.22MB
  Container Overhead: PauliMap=1.0x, CommOps=19.4x
  Container Details: CommOps size=11136, capacity=216005, PauliMap size=216005, buckets=351061
  Accumulated Data: Coeffs=4.59MB, ZMasks=4.59MB, Observables=2.35MB
  Circuit + Temp Memory: +22.53 MB, Persistent Circuit: +22.57 MB, Cleaned Temp: -0.04 MB (cleanup: -0.1%)
  Cumulative Circuit Memory: 467.17 MB (Total circuits: 80000)
  Complete Ansatz Memory Breakdown:
    shared_ptr overhead: 0.19 KB
    theta (params): 0.02 KB (0/0)
    parameterized_gates: 0.02 KB (0/0)
    gate_parameter_pointers: 0.02 KB (nested structure)
    gate_coefficients: 0.02 KB (estimated)
    excitation_index_map: 0.06 KB (string map)
    circuit_gates: 10495.40 KB (61064/61064)
    object_overhead: 0.25 KB
    Total Ansatz Object: 10.250 MB
    Memory Efficiency: 100.0% (useful data vs total)
    Memory Hotspot: circuit_gates (100.0% of object)
  Memory/Clique: 0.008 MB (prev: 0.007 MB)
  → Net Memory Delta: CPU +22.57 MB, GPU +4.00 MB [Circuit: 22.6MB + Data: 32.9MB + Overhead: -32.9MB]
Processing operator 28/645 - CPU: 745.39 MB, GPU: 38.7579 GB free
Operator 28: 11136 Pauli terms -> 3063 cliques (efficiency: 27.5%) - Memory: 32.71 MB
  STL Containers (temp): PauliMap=27.26MB, CommOps=14.75MB, Cliques=0.23MB
  Container Overhead: PauliMap=1.0x, CommOps=19.3x
  Container Details: CommOps size=11136, capacity=214813, PauliMap size=214813, buckets=351061
  Accumulated Data: Coeffs=4.76MB, ZMasks=4.76MB, Observables=2.44MB
  Circuit + Temp Memory: +13.87 MB, Persistent Circuit: +13.87 MB, Cleaned Temp: 0.00 MB (cleanup: 0.0%)
  Cumulative Circuit Memory: 481.04 MB (Total circuits: 83063)
  Complete Ansatz Memory Breakdown:
    shared_ptr overhead: 0.19 KB
    theta (params): 0.02 KB (0/0)
    parameterized_gates: 0.02 KB (0/0)
    gate_parameter_pointers: 0.02 KB (nested structure)
    gate_coefficients: 0.02 KB (estimated)
    excitation_index_map: 0.06 KB (string map)
    circuit_gates: 10769.88 KB (62661/62661)
    object_overhead: 0.25 KB
    Total Ansatz Object: 10.518 MB
    Memory Efficiency: 100.0% (useful data vs total)
    Memory Hotspot: circuit_gates (100.0% of object)
  Memory/Clique: 0.005 MB (prev: 0.008 MB)
  → Net Memory Delta: CPU +13.87 MB, GPU +2.00 MB [Circuit: 13.9MB + Data: 32.7MB + Overhead: -32.7MB]
Processing operator 29/645 - CPU: 759.25 MB, GPU: 38.7560 GB free
Operator 29: 9384 Pauli terms -> 2983 cliques (efficiency: 31.8%) - Memory: 34.08 MB
  STL Containers (temp): PauliMap=28.49MB, CommOps=15.49MB, Cliques=0.21MB
  Container Overhead: PauliMap=1.0x, CommOps=24.0x
  Container Details: CommOps size=9384, capacity=225528, PauliMap size=225528, buckets=351061
  Accumulated Data: Coeffs=4.15MB, ZMasks=4.15MB, Observables=2.53MB
  Circuit + Temp Memory: +31.26 MB, Persistent Circuit: +31.26 MB, Cleaned Temp: 0.00 MB (cleanup: 0.0%)
  Cumulative Circuit Memory: 512.30 MB (Total circuits: 86046)
  Complete Ansatz Memory Breakdown:
    shared_ptr overhead: 0.19 KB
    theta (params): 0.02 KB (0/0)
    parameterized_gates: 0.02 KB (0/0)
    gate_parameter_pointers: 0.02 KB (nested structure)
    gate_coefficients: 0.02 KB (estimated)
    excitation_index_map: 0.06 KB (string map)
    circuit_gates: 10750.29 KB (62547/62547)
    object_overhead: 0.25 KB
    Total Ansatz Object: 10.499 MB
    Memory Efficiency: 100.0% (useful data vs total)
    Memory Hotspot: circuit_gates (100.0% of object)
  Memory/Clique: 0.010 MB (prev: 0.005 MB)
  → Net Memory Delta: CPU +31.26 MB, GPU +4.00 MB [Circuit: 31.3MB + Data: 34.1MB + Overhead: -34.1MB]

--- SUMMARY: Operators 20-29 ---
  Batch Memory Growth: +174.12 MB
  Pauli Terms Generated: 97128
  Commuting Groups: 26927
  Average Efficiency: 27.9%
  Cumulative Memory: 790.51 MB
  Average Memory/Operator: 17.41 MB
  Theoretical Memory/Op: 0.55 MB (bloat factor: 31.6x)
  Memory Growth Rate: 17.4 MB/op
  Memory Bloat Factor: 31.6x
  System Memory Pressure: 10.2%
--- END SUMMARY ---

Processing operator 30/645 - CPU: 790.51 MB, GPU: 38.7521 GB free
Operator 30: 76160 Pauli terms -> 25523 cliques (efficiency: 33.5%) - Memory: 117.60 MB
  STL Containers (temp): PauliMap=94.84MB, CommOps=50.28MB, Cliques=1.75MB
  Container Overhead: PauliMap=1.0x, CommOps=9.6x
  Container Details: CommOps size=76160, capacity=732287, PauliMap size=732287, buckets=1447153
  Accumulated Data: Coeffs=34.86MB, ZMasks=34.86MB, Observables=2.63MB
  Circuit + Temp Memory: +164.43 MB, Persistent Circuit: +158.14 MB, Cleaned Temp: 6.28 MB (cleanup: 4.3%)
  Cumulative Circuit Memory: 670.44 MB (Total circuits: 111569)
  Complete Ansatz Memory Breakdown:
    shared_ptr overhead: 0.19 KB
    theta (params): 0.02 KB (0/0)
    parameterized_gates: 0.02 KB (0/0)
    gate_parameter_pointers: 0.02 KB (nested structure)
    gate_coefficients: 0.02 KB (estimated)
    excitation_index_map: 0.06 KB (string map)
    circuit_gates: 105642.13 KB (614645/614645)
    object_overhead: 0.25 KB
    Total Ansatz Object: 103.167 MB
    Memory Efficiency: 100.0% (useful data vs total)
    Memory Hotspot: circuit_gates (100.0% of object)
  Memory/Clique: 0.006 MB (prev: 0.010 MB)
  → Net Memory Delta: CPU +192.19 MB, GPU +26.00 MB [Circuit: 158.1MB + Data: 117.6MB + Overhead: -83.6MB]
Processing operator 31/645 - CPU: 982.70 MB, GPU: 38.7267 GB free
Operator 31: 76160 Pauli terms -> 22302 cliques (efficiency: 29.3%) - Memory: 117.14 MB
  STL Containers (temp): PauliMap=94.87MB, CommOps=50.30MB, Cliques=1.60MB
  Container Overhead: PauliMap=1.0x, CommOps=9.6x
  Container Details: CommOps size=76160, capacity=732511, PauliMap size=732511, buckets=1447153
  Accumulated Data: Coeffs=36.03MB, ZMasks=36.03MB, Observables=3.40MB
  Circuit + Temp Memory: +138.20 MB, Persistent Circuit: +131.90 MB, Cleaned Temp: 6.30 MB (cleanup: 4.3%)
  Cumulative Circuit Memory: 802.34 MB (Total circuits: 133871)
  Complete Ansatz Memory Breakdown:
    shared_ptr overhead: 0.19 KB
    theta (params): 0.02 KB (0/0)
    parameterized_gates: 0.02 KB (0/0)
    gate_parameter_pointers: 0.02 KB (nested structure)
    gate_coefficients: 0.02 KB (estimated)
    excitation_index_map: 0.06 KB (string map)
    circuit_gates: 96906.59 KB (563820/563820)
    object_overhead: 0.25 KB
    Total Ansatz Object: 94.636 MB
    Memory Efficiency: 100.0% (useful data vs total)
    Memory Hotspot: circuit_gates (100.0% of object)
  Memory/Clique: 0.006 MB (prev: 0.006 MB)
  → Net Memory Delta: CPU +149.23 MB, GPU +22.00 MB [Circuit: 131.9MB + Data: 117.1MB + Overhead: -99.8MB]
Processing operator 32/645 - CPU: 1131.93 MB, GPU: 38.7052 GB free
Operator 32: 76160 Pauli terms -> 22065 cliques (efficiency: 29.0%) - Memory: 117.38 MB
  STL Containers (temp): PauliMap=95.09MB, CommOps=50.43MB, Cliques=1.59MB
  Container Overhead: PauliMap=1.0x, CommOps=9.6x
  Container Details: CommOps size=76160, capacity=734399, PauliMap size=734399, buckets=1447153
  Accumulated Data: Coeffs=37.19MB, ZMasks=37.19MB, Observables=4.09MB
  Circuit + Temp Memory: +138.37 MB, Persistent Circuit: +131.94 MB, Cleaned Temp: 6.43 MB (cleanup: 4.4%)
  Cumulative Circuit Memory: 934.28 MB (Total circuits: 155936)
  Complete Ansatz Memory Breakdown:
    shared_ptr overhead: 0.19 KB
    theta (params): 0.02 KB (0/0)
    parameterized_gates: 0.02 KB (0/0)
    gate_parameter_pointers: 0.02 KB (nested structure)
    gate_coefficients: 0.02 KB (estimated)
    excitation_index_map: 0.06 KB (string map)
    circuit_gates: 97289.01 KB (566045/566045)
    object_overhead: 0.25 KB
    Total Ansatz Object: 95.009 MB
    Memory Efficiency: 100.0% (useful data vs total)
    Memory Hotspot: circuit_gates (100.0% of object)
  Memory/Clique: 0.006 MB (prev: 0.006 MB)
  → Net Memory Delta: CPU +149.41 MB, GPU +22.00 MB [Circuit: 131.9MB + Data: 117.4MB + Overhead: -99.9MB]
Processing operator 33/645 - CPU: 1281.34 MB, GPU: 38.6837 GB free
Operator 33: 76160 Pauli terms -> 24145 cliques (efficiency: 31.7%) - Memory: 117.42 MB
  STL Containers (temp): PauliMap=94.87MB, CommOps=50.30MB, Cliques=1.69MB
  Container Overhead: PauliMap=1.0x, CommOps=9.6x
  Container Details: CommOps size=76160, capacity=732507, PauliMap size=732507, buckets=1447153
  Accumulated Data: Coeffs=38.35MB, ZMasks=38.35MB, Observables=4.76MB
  Circuit + Temp Memory: +151.21 MB, Persistent Circuit: +144.91 MB, Cleaned Temp: 6.30 MB (cleanup: 4.3%)
  Cumulative Circuit Memory: 1079.19 MB (Total circuits: 180081)
  Complete Ansatz Memory Breakdown:
    shared_ptr overhead: 0.19 KB
    theta (params): 0.02 KB (0/0)
    parameterized_gates: 0.02 KB (0/0)
    gate_parameter_pointers: 0.02 KB (nested structure)
    gate_coefficients: 0.02 KB (estimated)
    excitation_index_map: 0.06 KB (string map)
    circuit_gates: 105540.04 KB (614051/614051)
    object_overhead: 0.25 KB
    Total Ansatz Object: 103.067 MB
    Memory Efficiency: 100.0% (useful data vs total)
    Memory Hotspot: circuit_gates (100.0% of object)
  Memory/Clique: 0.006 MB (prev: 0.006 MB)
  → Net Memory Delta: CPU +162.25 MB, GPU +24.00 MB [Circuit: 144.9MB + Data: 117.4MB + Overhead: -100.1MB]
Processing operator 34/645 - CPU: 1443.59 MB, GPU: 38.6603 GB free
Operator 34: 73904 Pauli terms -> 26723 cliques (efficiency: 36.2%) - Memory: 121.38 MB
  STL Containers (temp): PauliMap=97.86MB, CommOps=52.09MB, Cliques=1.79MB
  Container Overhead: PauliMap=1.0x, CommOps=10.3x
  Container Details: CommOps size=73904, capacity=758656, PauliMap size=758656, buckets=1447153
  Accumulated Data: Coeffs=38.34MB, ZMasks=38.34MB, Observables=5.50MB
  Circuit + Temp Memory: +171.44 MB, Persistent Circuit: +165.35 MB, Cleaned Temp: 6.09 MB (cleanup: 4.0%)
  Cumulative Circuit Memory: 1244.54 MB (Total circuits: 206804)
  Complete Ansatz Memory Breakdown:
    shared_ptr overhead: 0.19 KB
    theta (params): 0.02 KB (0/0)
    parameterized_gates: 0.02 KB (0/0)
    gate_parameter_pointers: 0.02 KB (nested structure)
    gate_coefficients: 0.02 KB (estimated)
    excitation_index_map: 0.06 KB (string map)
    circuit_gates: 116800.26 KB (679565/679565)
    object_overhead: 0.25 KB
    Total Ansatz Object: 114.063 MB
    Memory Efficiency: 100.0% (useful data vs total)
    Memory Hotspot: circuit_gates (100.0% of object)
  Memory/Clique: 0.006 MB (prev: 0.006 MB)
  → Net Memory Delta: CPU +182.48 MB, GPU +28.00 MB [Circuit: 165.3MB + Data: 121.4MB + Overhead: -104.3MB]
Processing operator 35/645 - CPU: 1626.07 MB, GPU: 38.6329 GB free
Operator 35: 76160 Pauli terms -> 24194 cliques (efficiency: 31.8%) - Memory: 117.84 MB
  STL Containers (temp): PauliMap=95.20MB, CommOps=50.49MB, Cliques=1.69MB
  Container Overhead: PauliMap=1.0x, CommOps=9.7x
  Container Details: CommOps size=76160, capacity=735359, PauliMap size=735359, buckets=1447153
  Accumulated Data: Coeffs=40.67MB, ZMasks=40.67MB, Observables=6.31MB
  Circuit + Temp Memory: +156.32 MB, Persistent Circuit: +149.83 MB, Cleaned Temp: 6.49 MB (cleanup: 4.4%)
  Cumulative Circuit Memory: 1394.37 MB (Total circuits: 230998)
  Complete Ansatz Memory Breakdown:
    shared_ptr overhead: 0.19 KB
    theta (params): 0.02 KB (0/0)
    parameterized_gates: 0.02 KB (0/0)
    gate_parameter_pointers: 0.02 KB (nested structure)
    gate_coefficients: 0.02 KB (estimated)
    excitation_index_map: 0.06 KB (string map)
    circuit_gates: 102044.96 KB (593716/593716)
    object_overhead: 0.25 KB
    Total Ansatz Object: 99.654 MB
    Memory Efficiency: 100.0% (useful data vs total)
    Memory Hotspot: circuit_gates (100.0% of object)
  Memory/Clique: 0.006 MB (prev: 0.006 MB)
  → Net Memory Delta: CPU +156.32 MB, GPU +24.00 MB [Circuit: 149.8MB + Data: 117.8MB + Overhead: -111.3MB]
Processing operator 36/645 - CPU: 1782.39 MB, GPU: 38.6095 GB free
Operator 36: 76160 Pauli terms -> 21274 cliques (efficiency: 27.9%) - Memory: 117.69 MB
  STL Containers (temp): PauliMap=95.43MB, CommOps=50.63MB, Cliques=1.55MB
  Container Overhead: PauliMap=1.0x, CommOps=9.7x
  Container Details: CommOps size=76160, capacity=737371, PauliMap size=737371, buckets=1447153
  Accumulated Data: Coeffs=41.84MB, ZMasks=41.84MB, Observables=7.05MB
  Circuit + Temp Memory: +132.82 MB, Persistent Circuit: +126.19 MB, Cleaned Temp: 6.63 MB (cleanup: 4.5%)
  Cumulative Circuit Memory: 1520.56 MB (Total circuits: 252272)
  Complete Ansatz Memory Breakdown:
    shared_ptr overhead: 0.19 KB
    theta (params): 0.02 KB (0/0)
    parameterized_gates: 0.02 KB (0/0)
    gate_parameter_pointers: 0.02 KB (nested structure)
    gate_coefficients: 0.02 KB (estimated)
    excitation_index_map: 0.06 KB (string map)
    circuit_gates: 93758.18 KB (545502/545502)
    object_overhead: 0.25 KB
    Total Ansatz Object: 91.561 MB
    Memory Efficiency: 100.0% (useful data vs total)
    Memory Hotspot: circuit_gates (100.0% of object)
  Memory/Clique: 0.006 MB (prev: 0.006 MB)
  → Net Memory Delta: CPU +143.86 MB, GPU +22.00 MB [Circuit: 126.2MB + Data: 117.7MB + Overhead: -100.0MB]
Processing operator 37/645 - CPU: 1926.25 MB, GPU: 38.5880 GB free
Operator 37: 76160 Pauli terms -> 21420 cliques (efficiency: 28.1%) - Memory: 117.92 MB
  STL Containers (temp): PauliMap=95.59MB, CommOps=50.73MB, Cliques=1.56MB
  Container Overhead: PauliMap=1.0x, CommOps=9.7x
  Container Details: CommOps size=76160, capacity=738815, PauliMap size=738815, buckets=1447153
  Accumulated Data: Coeffs=43.00MB, ZMasks=43.00MB, Observables=7.70MB
  Circuit + Temp Memory: +134.49 MB, Persistent Circuit: +127.77 MB, Cleaned Temp: 6.73 MB (cleanup: 4.5%)
  Cumulative Circuit Memory: 1648.32 MB (Total circuits: 273692)
  Complete Ansatz Memory Breakdown:
    shared_ptr overhead: 0.19 KB
    theta (params): 0.02 KB (0/0)
    parameterized_gates: 0.02 KB (0/0)
    gate_parameter_pointers: 0.02 KB (nested structure)
    gate_coefficients: 0.02 KB (estimated)
    excitation_index_map: 0.06 KB (string map)
    circuit_gates: 94937.59 KB (552364/552364)
    object_overhead: 0.25 KB
    Total Ansatz Object: 92.713 MB
    Memory Efficiency: 100.0% (useful data vs total)
    Memory Hotspot: circuit_gates (100.0% of object)
  Memory/Clique: 0.006 MB (prev: 0.006 MB)
  → Net Memory Delta: CPU +145.53 MB, GPU +20.00 MB [Circuit: 127.8MB + Data: 117.9MB + Overhead: -100.2MB]
Processing operator 38/645 - CPU: 2071.78 MB, GPU: 38.5685 GB free
Operator 38: 76160 Pauli terms -> 23402 cliques (efficiency: 30.7%) - Memory: 117.82 MB
  STL Containers (temp): PauliMap=95.27MB, CommOps=50.54MB, Cliques=1.65MB
  Container Overhead: PauliMap=1.0x, CommOps=9.7x
  Container Details: CommOps size=76160, capacity=736031, PauliMap size=736031, buckets=1447153
  Accumulated Data: Coeffs=44.16MB, ZMasks=44.16MB, Observables=8.35MB
  Circuit + Temp Memory: +146.31 MB, Persistent Circuit: +139.77 MB, Cleaned Temp: 6.54 MB (cleanup: 4.4%)
  Cumulative Circuit Memory: 1788.10 MB (Total circuits: 297094)
  Complete Ansatz Memory Breakdown:
    shared_ptr overhead: 0.19 KB
    theta (params): 0.02 KB (0/0)
    parameterized_gates: 0.02 KB (0/0)
    gate_parameter_pointers: 0.02 KB (nested structure)
    gate_coefficients: 0.02 KB (estimated)
    excitation_index_map: 0.06 KB (string map)
    circuit_gates: 102461.93 KB (596142/596142)
    object_overhead: 0.25 KB
    Total Ansatz Object: 100.061 MB
    Memory Efficiency: 100.0% (useful data vs total)
    Memory Hotspot: circuit_gates (100.0% of object)
  Memory/Clique: 0.006 MB (prev: 0.006 MB)
  → Net Memory Delta: CPU +157.35 MB, GPU +24.00 MB [Circuit: 139.8MB + Data: 117.8MB + Overhead: -100.2MB]
Processing operator 39/645 - CPU: 2229.12 MB, GPU: 38.5450 GB free
Operator 39: 73904 Pauli terms -> 25695 cliques (efficiency: 34.8%) - Memory: 121.93 MB
  STL Containers (temp): PauliMap=98.42MB, CommOps=52.43MB, Cliques=1.74MB
  Container Overhead: PauliMap=1.0x, CommOps=10.3x
  Container Details: CommOps size=73904, capacity=763520, PauliMap size=763520, buckets=1447153
  Accumulated Data: Coeffs=43.98MB, ZMasks=43.98MB, Observables=9.07MB
  Circuit + Temp Memory: +165.44 MB, Persistent Circuit: +159.02 MB, Cleaned Temp: 6.43 MB (cleanup: 4.2%)
  Cumulative Circuit Memory: 1947.11 MB (Total circuits: 322789)
  Complete Ansatz Memory Breakdown:
    shared_ptr overhead: 0.19 KB
    theta (params): 0.02 KB (0/0)
    parameterized_gates: 0.02 KB (0/0)
    gate_parameter_pointers: 0.02 KB (nested structure)
    gate_coefficients: 0.02 KB (estimated)
    excitation_index_map: 0.06 KB (string map)
    circuit_gates: 113096.35 KB (658015/658015)
    object_overhead: 0.25 KB
    Total Ansatz Object: 110.446 MB
    Memory Efficiency: 100.0% (useful data vs total)
    Memory Hotspot: circuit_gates (100.0% of object)
  Memory/Clique: 0.006 MB (prev: 0.006 MB)
  → Net Memory Delta: CPU +176.48 MB, GPU +26.00 MB [Circuit: 159.0MB + Data: 121.9MB + Overhead: -104.5MB]

--- SUMMARY: Operators 30-39 ---
  Batch Memory Growth: +1615.09 MB
  Pauli Terms Generated: 757088
  Commuting Groups: 236743
  Average Efficiency: 31.3%
  Cumulative Memory: 2405.61 MB
  Average Memory/Operator: 161.51 MB
  Theoretical Memory/Op: 4.62 MB (bloat factor: 34.9x)
  Memory Growth Rate: 161.5 MB/op
  Memory Bloat Factor: 34.9x
  System Memory Pressure: 10.7%
--- END SUMMARY ---

Processing operator 40/645 - CPU: 2405.61 MB, GPU: 38.5197 GB free
Operator 40: 73904 Pauli terms -> 23356 cliques (efficiency: 31.6%) - Memory: 121.08 MB
  STL Containers (temp): PauliMap=98.03MB, CommOps=52.19MB, Cliques=1.63MB
  Container Overhead: PauliMap=1.0x, CommOps=10.3x
  Container Details: CommOps size=73904, capacity=760128, PauliMap size=760128, buckets=1447153
  Accumulated Data: Coeffs=45.11MB, ZMasks=45.11MB, Observables=9.85MB
  Circuit + Temp Memory: +144.57 MB, Persistent Circuit: +138.38 MB, Cleaned Temp: 6.20 MB (cleanup: 4.1%)
  Cumulative Circuit Memory: 2085.49 MB (Total circuits: 346145)
  Complete Ansatz Memory Breakdown:
    shared_ptr overhead: 0.19 KB
    theta (params): 0.02 KB (0/0)
    parameterized_gates: 0.02 KB (0/0)
    gate_parameter_pointers: 0.02 KB (nested structure)
    gate_coefficients: 0.02 KB (estimated)
    excitation_index_map: 0.06 KB (string map)
    circuit_gates: 101213.09 KB (588876/588876)
    object_overhead: 0.25 KB
    Total Ansatz Object: 98.841 MB
    Memory Efficiency: 100.0% (useful data vs total)
    Memory Hotspot: circuit_gates (100.0% of object)
  Memory/Clique: 0.006 MB (prev: 0.006 MB)
  → Net Memory Delta: CPU +155.61 MB, GPU +24.00 MB [Circuit: 138.4MB + Data: 121.1MB + Overhead: -103.9MB]
Processing operator 41/645 - CPU: 2561.21 MB, GPU: 38.4962 GB free
Operator 41: 73904 Pauli terms -> 21214 cliques (efficiency: 28.7%) - Memory: 121.02 MB
  STL Containers (temp): PauliMap=98.24MB, CommOps=52.32MB, Cliques=1.53MB
  Container Overhead: PauliMap=1.0x, CommOps=10.3x
  Container Details: CommOps size=73904, capacity=761984, PauliMap size=761984, buckets=1447153
  Accumulated Data: Coeffs=46.24MB, ZMasks=46.24MB, Observables=10.56MB
  Circuit + Temp Memory: +133.55 MB, Persistent Circuit: +127.23 MB, Cleaned Temp: 6.32 MB (cleanup: 4.2%)
  Cumulative Circuit Memory: 2212.72 MB (Total circuits: 367359)
  Complete Ansatz Memory Breakdown:
    shared_ptr overhead: 0.19 KB
    theta (params): 0.02 KB (0/0)
    parameterized_gates: 0.02 KB (0/0)
    gate_parameter_pointers: 0.02 KB (nested structure)
    gate_coefficients: 0.02 KB (estimated)
    excitation_index_map: 0.06 KB (string map)
    circuit_gates: 94660.87 KB (550754/550754)
    object_overhead: 0.25 KB
    Total Ansatz Object: 92.443 MB
    Memory Efficiency: 100.0% (useful data vs total)
    Memory Hotspot: circuit_gates (100.0% of object)
  Memory/Clique: 0.006 MB (prev: 0.006 MB)
  → Net Memory Delta: CPU +144.59 MB, GPU +22.00 MB [Circuit: 127.2MB + Data: 121.0MB + Overhead: -103.7MB]
Processing operator 42/645 - CPU: 2705.80 MB, GPU: 38.4747 GB free
Operator 42: 73904 Pauli terms -> 21511 cliques (efficiency: 29.1%) - Memory: 121.34 MB
  STL Containers (temp): PauliMap=98.46MB, CommOps=52.45MB, Cliques=1.55MB
  Container Overhead: PauliMap=1.0x, CommOps=10.3x
  Container Details: CommOps size=73904, capacity=763840, PauliMap size=763840, buckets=1447153
  Accumulated Data: Coeffs=47.36MB, ZMasks=47.36MB, Observables=11.21MB
  Circuit + Temp Memory: +136.22 MB, Persistent Circuit: +129.78 MB, Cleaned Temp: 6.45 MB (cleanup: 4.2%)
  Cumulative Circuit Memory: 2342.50 MB (Total circuits: 388870)
  Complete Ansatz Memory Breakdown:
    shared_ptr overhead: 0.19 KB
    theta (params): 0.02 KB (0/0)
    parameterized_gates: 0.02 KB (0/0)
    gate_parameter_pointers: 0.02 KB (nested structure)
    gate_coefficients: 0.02 KB (estimated)
    excitation_index_map: 0.06 KB (string map)
    circuit_gates: 96244.35 KB (559967/559967)
    object_overhead: 0.25 KB
    Total Ansatz Object: 93.989 MB
    Memory Efficiency: 100.0% (useful data vs total)
    Memory Hotspot: circuit_gates (100.0% of object)
  Memory/Clique: 0.006 MB (prev: 0.006 MB)
  → Net Memory Delta: CPU +147.03 MB, GPU +20.00 MB [Circuit: 129.8MB + Data: 121.3MB + Overhead: -104.1MB]
Processing operator 43/645 - CPU: 2852.83 MB, GPU: 38.4552 GB free
Operator 43: 73904 Pauli terms -> 22769 cliques (efficiency: 30.8%) - Memory: 120.96 MB
  STL Containers (temp): PauliMap=98.01MB, CommOps=52.18MB, Cliques=1.61MB
  Container Overhead: PauliMap=1.0x, CommOps=10.3x
  Container Details: CommOps size=73904, capacity=759936, PauliMap size=759936, buckets=1447153
  Accumulated Data: Coeffs=48.49MB, ZMasks=48.49MB, Observables=11.87MB
  Circuit + Temp Memory: +143.65 MB, Persistent Circuit: +137.46 MB, Cleaned Temp: 6.18 MB (cleanup: 4.1%)
  Cumulative Circuit Memory: 2479.96 MB (Total circuits: 411639)
  Complete Ansatz Memory Breakdown:
    shared_ptr overhead: 0.19 KB
    theta (params): 0.02 KB (0/0)
    parameterized_gates: 0.02 KB (0/0)
    gate_parameter_pointers: 0.02 KB (nested structure)
    gate_coefficients: 0.02 KB (estimated)
    excitation_index_map: 0.06 KB (string map)
    circuit_gates: 101489.29 KB (590483/590483)
    object_overhead: 0.25 KB
    Total Ansatz Object: 99.111 MB
    Memory Efficiency: 100.0% (useful data vs total)
    Memory Hotspot: circuit_gates (100.0% of object)
  Memory/Clique: 0.006 MB (prev: 0.006 MB)
  → Net Memory Delta: CPU +154.68 MB, GPU +24.00 MB [Circuit: 137.5MB + Data: 121.0MB + Overhead: -103.7MB]
Processing operator 44/645 - CPU: 3007.51 MB, GPU: 38.4318 GB free
Operator 44: 65600 Pauli terms -> 22835 cliques (efficiency: 34.8%) - Memory: 124.87 MB
  STL Containers (temp): PauliMap=101.73MB, CommOps=54.42MB, Cliques=1.55MB
  Container Overhead: PauliMap=1.0x, CommOps=12.1x
  Container Details: CommOps size=65600, capacity=792479, PauliMap size=792479, buckets=1447153
  Accumulated Data: Coeffs=44.04MB, ZMasks=44.04MB, Observables=12.56MB
  Circuit + Temp Memory: +145.64 MB, Persistent Circuit: +139.23 MB, Cleaned Temp: 6.41 MB (cleanup: 4.1%)
  Cumulative Circuit Memory: 2619.20 MB (Total circuits: 434474)
  Complete Ansatz Memory Breakdown:
    shared_ptr overhead: 0.19 KB
    theta (params): 0.02 KB (0/0)
    parameterized_gates: 0.02 KB (0/0)
    gate_parameter_pointers: 0.02 KB (nested structure)
    gate_coefficients: 0.02 KB (estimated)
    excitation_index_map: 0.06 KB (string map)
    circuit_gates: 99641.29 KB (579731/579731)
    object_overhead: 0.25 KB
    Total Ansatz Object: 97.307 MB
    Memory Efficiency: 100.0% (useful data vs total)
    Memory Hotspot: circuit_gates (100.0% of object)
  Memory/Clique: 0.006 MB (prev: 0.006 MB)
  → Net Memory Delta: CPU +156.67 MB, GPU +22.00 MB [Circuit: 139.2MB + Data: 124.9MB + Overhead: -107.4MB]
Processing operator 45/645 - CPU: 3164.18 MB, GPU: 38.4103 GB free
Operator 45: 76160 Pauli terms -> 24445 cliques (efficiency: 32.1%) - Memory: 117.28 MB
  STL Containers (temp): PauliMap=94.73MB, CommOps=50.21MB, Cliques=1.70MB
  Container Overhead: PauliMap=1.0x, CommOps=9.6x
  Container Details: CommOps size=76160, capacity=731247, PauliMap size=731247, buckets=1447153
  Accumulated Data: Coeffs=52.29MB, ZMasks=52.29MB, Observables=13.26MB
  Circuit + Temp Memory: +141.27 MB, Persistent Circuit: +135.07 MB, Cleaned Temp: 6.21 MB (cleanup: 4.2%)
  Cumulative Circuit Memory: 2754.26 MB (Total circuits: 458919)
  Complete Ansatz Memory Breakdown:
    shared_ptr overhead: 0.19 KB
    theta (params): 0.02 KB (0/0)
    parameterized_gates: 0.02 KB (0/0)
    gate_parameter_pointers: 0.02 KB (nested structure)
    gate_coefficients: 0.02 KB (estimated)
    excitation_index_map: 0.06 KB (string map)
    circuit_gates: 100960.26 KB (587405/587405)
    object_overhead: 0.25 KB
    Total Ansatz Object: 98.595 MB
    Memory Efficiency: 100.0% (useful data vs total)
    Memory Hotspot: circuit_gates (100.0% of object)
  Memory/Clique: 0.006 MB (prev: 0.006 MB)
  → Net Memory Delta: CPU +152.15 MB, GPU +26.00 MB [Circuit: 135.1MB + Data: 117.3MB + Overhead: -100.2MB]
Processing operator 46/645 - CPU: 3316.34 MB, GPU: 38.3849 GB free
Operator 46: 76160 Pauli terms -> 21098 cliques (efficiency: 27.7%) - Memory: 116.90 MB
  STL Containers (temp): PauliMap=94.83MB, CommOps=50.27MB, Cliques=1.55MB
  Container Overhead: PauliMap=1.0x, CommOps=9.6x
  Container Details: CommOps size=76160, capacity=732127, PauliMap size=732127, buckets=1447153
  Accumulated Data: Coeffs=53.46MB, ZMasks=53.46MB, Observables=14.01MB
  Circuit + Temp Memory: +133.11 MB, Persistent Circuit: +126.84 MB, Cleaned Temp: 6.27 MB (cleanup: 4.3%)
  Cumulative Circuit Memory: 2881.10 MB (Total circuits: 480017)
  Complete Ansatz Memory Breakdown:
    shared_ptr overhead: 0.19 KB
    theta (params): 0.02 KB (0/0)
    parameterized_gates: 0.02 KB (0/0)
    gate_parameter_pointers: 0.02 KB (nested structure)
    gate_coefficients: 0.02 KB (estimated)
    excitation_index_map: 0.06 KB (string map)
    circuit_gates: 91483.24 KB (532266/532266)
    object_overhead: 0.25 KB
    Total Ansatz Object: 89.340 MB
    Memory Efficiency: 100.0% (useful data vs total)
    Memory Hotspot: circuit_gates (100.0% of object)
  Memory/Clique: 0.006 MB (prev: 0.006 MB)
  → Net Memory Delta: CPU +144.15 MB, GPU +20.00 MB [Circuit: 126.8MB + Data: 116.9MB + Overhead: -99.6MB]
Processing operator 47/645 - CPU: 3460.48 MB, GPU: 38.3654 GB free
Operator 47: 76160 Pauli terms -> 21266 cliques (efficiency: 27.9%) - Memory: 117.33 MB
  STL Containers (temp): PauliMap=95.14MB, CommOps=50.46MB, Cliques=1.55MB
  Container Overhead: PauliMap=1.0x, CommOps=9.6x
  Container Details: CommOps size=76160, capacity=734879, PauliMap size=734879, buckets=1447153
  Accumulated Data: Coeffs=54.62MB, ZMasks=54.62MB, Observables=14.65MB
  Circuit + Temp Memory: +132.25 MB, Persistent Circuit: +125.80 MB, Cleaned Temp: 6.46 MB (cleanup: 4.4%)
  Cumulative Circuit Memory: 3006.90 MB (Total circuits: 501283)
  Complete Ansatz Memory Breakdown:
    shared_ptr overhead: 0.19 KB
    theta (params): 0.02 KB (0/0)
    parameterized_gates: 0.02 KB (0/0)
    gate_parameter_pointers: 0.02 KB (nested structure)
    gate_coefficients: 0.02 KB (estimated)
    excitation_index_map: 0.06 KB (string map)
    circuit_gates: 92887.46 KB (540436/540436)
    object_overhead: 0.25 KB
    Total Ansatz Object: 90.711 MB
    Memory Efficiency: 100.0% (useful data vs total)
    Memory Hotspot: circuit_gates (100.0% of object)
  Memory/Clique: 0.006 MB (prev: 0.006 MB)
  → Net Memory Delta: CPU +140.21 MB, GPU +22.00 MB [Circuit: 125.8MB + Data: 117.3MB + Overhead: -102.9MB]
Processing operator 48/645 - CPU: 3600.69 MB, GPU: 38.3439 GB free
Operator 48: 76160 Pauli terms -> 23097 cliques (efficiency: 30.3%) - Memory: 117.06 MB
  STL Containers (temp): PauliMap=94.71MB, CommOps=50.20MB, Cliques=1.64MB
  Container Overhead: PauliMap=1.0x, CommOps=9.6x
  Container Details: CommOps size=76160, capacity=731135, PauliMap size=731135, buckets=1447153
  Accumulated Data: Coeffs=55.78MB, ZMasks=55.78MB, Observables=15.30MB
  Circuit + Temp Memory: +142.73 MB, Persistent Circuit: +136.53 MB, Cleaned Temp: 6.20 MB (cleanup: 4.2%)
  Cumulative Circuit Memory: 3143.43 MB (Total circuits: 524380)
  Complete Ansatz Memory Breakdown:
    shared_ptr overhead: 0.19 KB
    theta (params): 0.02 KB (0/0)
    parameterized_gates: 0.02 KB (0/0)
    gate_parameter_pointers: 0.02 KB (nested structure)
    gate_coefficients: 0.02 KB (estimated)
    excitation_index_map: 0.06 KB (string map)
    circuit_gates: 99663.98 KB (579863/579863)
    object_overhead: 0.25 KB
    Total Ansatz Object: 97.329 MB
    Memory Efficiency: 100.0% (useful data vs total)
    Memory Hotspot: circuit_gates (100.0% of object)
  Memory/Clique: 0.006 MB (prev: 0.006 MB)
  → Net Memory Delta: CPU +153.77 MB, GPU +24.00 MB [Circuit: 136.5MB + Data: 117.1MB + Overhead: -99.8MB]
Processing operator 49/645 - CPU: 3754.46 MB, GPU: 38.3204 GB free
Operator 49: 73904 Pauli terms -> 26141 cliques (efficiency: 35.4%) - Memory: 121.25 MB
  STL Containers (temp): PauliMap=97.83MB, CommOps=52.07MB, Cliques=1.76MB
  Container Overhead: PauliMap=1.0x, CommOps=10.3x
  Container Details: CommOps size=73904, capacity=758336, PauliMap size=758336, buckets=1447153
  Accumulated Data: Coeffs=55.26MB, ZMasks=55.26MB, Observables=16.00MB
  Circuit + Temp Memory: +166.24 MB, Persistent Circuit: +160.17 MB, Cleaned Temp: 6.07 MB (cleanup: 4.0%)
  Cumulative Circuit Memory: 3303.59 MB (Total circuits: 550521)
  Complete Ansatz Memory Breakdown:
    shared_ptr overhead: 0.19 KB
    theta (params): 0.02 KB (0/0)
    parameterized_gates: 0.02 KB (0/0)
    gate_parameter_pointers: 0.02 KB (nested structure)
    gate_coefficients: 0.02 KB (estimated)
    excitation_index_map: 0.06 KB (string map)
    circuit_gates: 112737.13 KB (655925/655925)
    object_overhead: 0.25 KB
    Total Ansatz Object: 110.095 MB
    Memory Efficiency: 100.0% (useful data vs total)
    Memory Hotspot: circuit_gates (100.0% of object)
  Memory/Clique: 0.006 MB (prev: 0.006 MB)
  → Net Memory Delta: CPU +177.27 MB, GPU +26.00 MB [Circuit: 160.2MB + Data: 121.2MB + Overhead: -104.1MB]

--- SUMMARY: Operators 40-49 ---
  Batch Memory Growth: +1526.12 MB
  Pauli Terms Generated: 739760
  Commuting Groups: 227732
  Average Efficiency: 30.8%
  Cumulative Memory: 3931.73 MB
  Average Memory/Operator: 152.61 MB
  Theoretical Memory/Op: 4.47 MB (bloat factor: 34.1x)
  Memory Growth Rate: 152.6 MB/op
  Memory Bloat Factor: 34.1x
  System Memory Pressure: 11.2%
--- END SUMMARY ---

Processing operator 50/645 - CPU: 3931.73 MB, GPU: 38.2950 GB free
Operator 50: 76160 Pauli terms -> 24760 cliques (efficiency: 32.5%) - Memory: 117.60 MB
  STL Containers (temp): PauliMap=94.94MB, CommOps=50.34MB, Cliques=1.71MB
  Container Overhead: PauliMap=1.0x, CommOps=9.6x
  Container Details: CommOps size=76160, capacity=733083, PauliMap size=733083, buckets=1447153
  Accumulated Data: Coeffs=58.11MB, ZMasks=58.11MB, Observables=16.80MB
  Circuit + Temp Memory: +149.09 MB, Persistent Circuit: +142.75 MB, Cleaned Temp: 6.34 MB (cleanup: 4.3%)
  Cumulative Circuit Memory: 3446.35 MB (Total circuits: 575281)
  Complete Ansatz Memory Breakdown:
    shared_ptr overhead: 0.19 KB
    theta (params): 0.02 KB (0/0)
    parameterized_gates: 0.02 KB (0/0)
    gate_parameter_pointers: 0.02 KB (nested structure)
    gate_coefficients: 0.02 KB (estimated)
    excitation_index_map: 0.06 KB (string map)
    circuit_gates: 104673.62 KB (609010/609010)
    object_overhead: 0.25 KB
    Total Ansatz Object: 102.221 MB
    Memory Efficiency: 100.0% (useful data vs total)
    Memory Hotspot: circuit_gates (100.0% of object)
  Memory/Clique: 0.006 MB (prev: 0.006 MB)
  → Net Memory Delta: CPU +160.12 MB, GPU +24.00 MB [Circuit: 142.8MB + Data: 117.6MB + Overhead: -100.2MB]
Processing operator 51/645 - CPU: 4091.85 MB, GPU: 38.2716 GB free
Operator 51: 76160 Pauli terms -> 22307 cliques (efficiency: 29.3%) - Memory: 117.64 MB
  STL Containers (temp): PauliMap=95.27MB, CommOps=50.53MB, Cliques=1.60MB
  Container Overhead: PauliMap=1.0x, CommOps=9.7x
  Container Details: CommOps size=76160, capacity=735967, PauliMap size=735967, buckets=1447153
  Accumulated Data: Coeffs=59.27MB, ZMasks=59.27MB, Observables=17.56MB
  Circuit + Temp Memory: +148.77 MB, Persistent Circuit: +142.23 MB, Cleaned Temp: 6.54 MB (cleanup: 4.4%)
  Cumulative Circuit Memory: 3588.58 MB (Total circuits: 597588)
  Complete Ansatz Memory Breakdown:
    shared_ptr overhead: 0.19 KB
    theta (params): 0.02 KB (0/0)
    parameterized_gates: 0.02 KB (0/0)
    gate_parameter_pointers: 0.02 KB (nested structure)
    gate_coefficients: 0.02 KB (estimated)
    excitation_index_map: 0.06 KB (string map)
    circuit_gates: 97913.95 KB (569681/569681)
    object_overhead: 0.25 KB
    Total Ansatz Object: 95.620 MB
    Memory Efficiency: 100.0% (useful data vs total)
    Memory Hotspot: circuit_gates (100.0% of object)
  Memory/Clique: 0.006 MB (prev: 0.006 MB)
  → Net Memory Delta: CPU +159.56 MB, GPU +24.00 MB [Circuit: 142.2MB + Data: 117.6MB + Overhead: -100.3MB]
Processing operator 52/645 - CPU: 4251.41 MB, GPU: 38.2482 GB free
Operator 52: 76160 Pauli terms -> 24143 cliques (efficiency: 31.7%) - Memory: 117.28 MB
  STL Containers (temp): PauliMap=94.76MB, CommOps=50.23MB, Cliques=1.69MB
  Container Overhead: PauliMap=1.0x, CommOps=9.6x
  Container Details: CommOps size=76160, capacity=731551, PauliMap size=731551, buckets=1447153
  Accumulated Data: Coeffs=60.43MB, ZMasks=60.43MB, Observables=18.24MB
  Circuit + Temp Memory: +150.72 MB, Persistent Circuit: +144.49 MB, Cleaned Temp: 6.23 MB (cleanup: 4.2%)
  Cumulative Circuit Memory: 3733.07 MB (Total circuits: 621731)
  Complete Ansatz Memory Breakdown:
    shared_ptr overhead: 0.19 KB
    theta (params): 0.02 KB (0/0)
    parameterized_gates: 0.02 KB (0/0)
    gate_parameter_pointers: 0.02 KB (nested structure)
    gate_coefficients: 0.02 KB (estimated)
    excitation_index_map: 0.06 KB (string map)
    circuit_gates: 105139.23 KB (611719/611719)
    object_overhead: 0.25 KB
    Total Ansatz Object: 102.676 MB
    Memory Efficiency: 100.0% (useful data vs total)
    Memory Hotspot: circuit_gates (100.0% of object)
  Memory/Clique: 0.006 MB (prev: 0.006 MB)
  → Net Memory Delta: CPU +152.54 MB, GPU +24.00 MB [Circuit: 144.5MB + Data: 117.3MB + Overhead: -109.2MB]
Processing operator 53/645 - CPU: 4403.96 MB, GPU: 38.2247 GB free
Operator 53: 73904 Pauli terms -> 26666 cliques (efficiency: 36.1%) - Memory: 121.49 MB
  STL Containers (temp): PauliMap=97.96MB, CommOps=52.15MB, Cliques=1.78MB
  Container Overhead: PauliMap=1.0x, CommOps=10.3x
  Container Details: CommOps size=73904, capacity=759488, PauliMap size=759488, buckets=1447153
  Accumulated Data: Coeffs=59.77MB, ZMasks=59.77MB, Observables=18.97MB
  Circuit + Temp Memory: +170.48 MB, Persistent Circuit: +164.33 MB, Cleaned Temp: 6.15 MB (cleanup: 4.0%)
  Cumulative Circuit Memory: 3897.40 MB (Total circuits: 648397)
  Complete Ansatz Memory Breakdown:
    shared_ptr overhead: 0.19 KB
    theta (params): 0.02 KB (0/0)
    parameterized_gates: 0.02 KB (0/0)
    gate_parameter_pointers: 0.02 KB (nested structure)
    gate_coefficients: 0.02 KB (estimated)
    excitation_index_map: 0.06 KB (string map)
    circuit_gates: 115778.46 KB (673620/673620)
    object_overhead: 0.25 KB
    Total Ansatz Object: 113.065 MB
    Memory Efficiency: 100.0% (useful data vs total)
    Memory Hotspot: circuit_gates (100.0% of object)
  Memory/Clique: 0.006 MB (prev: 0.006 MB)
  → Net Memory Delta: CPU +181.52 MB, GPU +26.00 MB [Circuit: 164.3MB + Data: 121.5MB + Overhead: -104.3MB]
Processing operator 54/645 - CPU: 4585.48 MB, GPU: 38.1993 GB free
Operator 54: 76160 Pauli terms -> 23363 cliques (efficiency: 30.7%) - Memory: 117.89 MB
  STL Containers (temp): PauliMap=95.34MB, CommOps=50.58MB, Cliques=1.65MB
  Container Overhead: PauliMap=1.0x, CommOps=9.7x
  Container Details: CommOps size=76160, capacity=736575, PauliMap size=736575, buckets=1447153
  Accumulated Data: Coeffs=62.75MB, ZMasks=62.75MB, Observables=19.79MB
  Circuit + Temp Memory: +146.21 MB, Persistent Circuit: +139.63 MB, Cleaned Temp: 6.58 MB (cleanup: 4.5%)
  Cumulative Circuit Memory: 4037.04 MB (Total circuits: 671760)
  Complete Ansatz Memory Breakdown:
    shared_ptr overhead: 0.19 KB
    theta (params): 0.02 KB (0/0)
    parameterized_gates: 0.02 KB (0/0)
    gate_parameter_pointers: 0.02 KB (nested structure)
    gate_coefficients: 0.02 KB (estimated)
    excitation_index_map: 0.06 KB (string map)
    circuit_gates: 100493.10 KB (584687/584687)
    object_overhead: 0.25 KB
    Total Ansatz Object: 98.138 MB
    Memory Efficiency: 100.0% (useful data vs total)
    Memory Hotspot: circuit_gates (100.0% of object)
  Memory/Clique: 0.006 MB (prev: 0.006 MB)
  → Net Memory Delta: CPU +157.24 MB, GPU +24.00 MB [Circuit: 139.6MB + Data: 117.9MB + Overhead: -100.3MB]
Processing operator 55/645 - CPU: 4742.72 MB, GPU: 38.1759 GB free
Operator 55: 76160 Pauli terms -> 21682 cliques (efficiency: 28.5%) - Memory: 117.94 MB
  STL Containers (temp): PauliMap=95.57MB, CommOps=50.72MB, Cliques=1.57MB
  Container Overhead: PauliMap=1.0x, CommOps=9.7x
  Container Details: CommOps size=76160, capacity=738655, PauliMap size=738655, buckets=1447153
  Accumulated Data: Coeffs=63.92MB, ZMasks=63.92MB, Observables=20.50MB
  Circuit + Temp Memory: +135.70 MB, Persistent Circuit: +128.98 MB, Cleaned Temp: 6.72 MB (cleanup: 4.5%)
  Cumulative Circuit Memory: 4166.02 MB (Total circuits: 693442)
  Complete Ansatz Memory Breakdown:
    shared_ptr overhead: 0.19 KB
    theta (params): 0.02 KB (0/0)
    parameterized_gates: 0.02 KB (0/0)
    gate_parameter_pointers: 0.02 KB (nested structure)
    gate_coefficients: 0.02 KB (estimated)
    excitation_index_map: 0.06 KB (string map)
    circuit_gates: 95605.84 KB (556252/556252)
    object_overhead: 0.25 KB
    Total Ansatz Object: 93.366 MB
    Memory Efficiency: 100.0% (useful data vs total)
    Memory Hotspot: circuit_gates (100.0% of object)
  Memory/Clique: 0.006 MB (prev: 0.006 MB)
  → Net Memory Delta: CPU +142.29 MB, GPU +22.00 MB [Circuit: 129.0MB + Data: 117.9MB + Overhead: -104.6MB]
Processing operator 56/645 - CPU: 4885.01 MB, GPU: 38.1544 GB free
Operator 56: 76160 Pauli terms -> 23478 cliques (efficiency: 30.8%) - Memory: 117.48 MB
  STL Containers (temp): PauliMap=95.00MB, CommOps=50.37MB, Cliques=1.66MB
  Container Overhead: PauliMap=1.0x, CommOps=9.6x
  Container Details: CommOps size=76160, capacity=733631, PauliMap size=733631, buckets=1447153
  Accumulated Data: Coeffs=65.08MB, ZMasks=65.08MB, Observables=21.16MB
  Circuit + Temp Memory: +146.39 MB, Persistent Circuit: +140.02 MB, Cleaned Temp: 6.37 MB (cleanup: 4.3%)
  Cumulative Circuit Memory: 4306.03 MB (Total circuits: 716920)
  Complete Ansatz Memory Breakdown:
    shared_ptr overhead: 0.19 KB
    theta (params): 0.02 KB (0/0)
    parameterized_gates: 0.02 KB (0/0)
    gate_parameter_pointers: 0.02 KB (nested structure)
    gate_coefficients: 0.02 KB (estimated)
    excitation_index_map: 0.06 KB (string map)
    circuit_gates: 102605.62 KB (596978/596978)
    object_overhead: 0.25 KB
    Total Ansatz Object: 100.201 MB
    Memory Efficiency: 100.0% (useful data vs total)
    Memory Hotspot: circuit_gates (100.0% of object)
  Memory/Clique: 0.006 MB (prev: 0.006 MB)
  → Net Memory Delta: CPU +157.43 MB, GPU +24.00 MB [Circuit: 140.0MB + Data: 117.5MB + Overhead: -100.1MB]
Processing operator 57/645 - CPU: 5042.44 MB, GPU: 38.1310 GB free
Operator 57: 73904 Pauli terms -> 25725 cliques (efficiency: 34.8%) - Memory: 121.79 MB
  STL Containers (temp): PauliMap=98.31MB, CommOps=52.36MB, Cliques=1.74MB
  Container Overhead: PauliMap=1.0x, CommOps=10.3x
  Container Details: CommOps size=73904, capacity=762560, PauliMap size=762560, buckets=1447153
  Accumulated Data: Coeffs=64.28MB, ZMasks=64.28MB, Observables=21.88MB
  Circuit + Temp Memory: +165.13 MB, Persistent Circuit: +158.77 MB, Cleaned Temp: 6.36 MB (cleanup: 4.2%)
  Cumulative Circuit Memory: 4464.80 MB (Total circuits: 742645)
  Complete Ansatz Memory Breakdown:
    shared_ptr overhead: 0.19 KB
    theta (params): 0.02 KB (0/0)
    parameterized_gates: 0.02 KB (0/0)
    gate_parameter_pointers: 0.02 KB (nested structure)
    gate_coefficients: 0.02 KB (estimated)
    excitation_index_map: 0.06 KB (string map)
    circuit_gates: 112543.60 KB (654799/654799)
    object_overhead: 0.25 KB
    Total Ansatz Object: 109.906 MB
    Memory Efficiency: 100.0% (useful data vs total)
    Memory Hotspot: circuit_gates (100.0% of object)
  Memory/Clique: 0.006 MB (prev: 0.006 MB)
  → Net Memory Delta: CPU +176.17 MB, GPU +26.00 MB [Circuit: 158.8MB + Data: 121.8MB + Overhead: -104.4MB]
Processing operator 58/645 - CPU: 5218.61 MB, GPU: 38.1056 GB free
Operator 58: 73904 Pauli terms -> 22414 cliques (efficiency: 30.3%) - Memory: 121.20 MB
  STL Containers (temp): PauliMap=98.24MB, CommOps=52.32MB, Cliques=1.59MB
  Container Overhead: PauliMap=1.0x, CommOps=10.3x
  Container Details: CommOps size=73904, capacity=761920, PauliMap size=761920, buckets=1447153
  Accumulated Data: Coeffs=65.41MB, ZMasks=65.41MB, Observables=22.66MB
  Circuit + Temp Memory: +140.34 MB, Persistent Circuit: +134.02 MB, Cleaned Temp: 6.32 MB (cleanup: 4.2%)
  Cumulative Circuit Memory: 4598.82 MB (Total circuits: 765059)
  Complete Ansatz Memory Breakdown:
    shared_ptr overhead: 0.19 KB
    theta (params): 0.02 KB (0/0)
    parameterized_gates: 0.02 KB (0/0)
    gate_parameter_pointers: 0.02 KB (nested structure)
    gate_coefficients: 0.02 KB (estimated)
    excitation_index_map: 0.06 KB (string map)
    circuit_gates: 98943.99 KB (575674/575674)
    object_overhead: 0.25 KB
    Total Ansatz Object: 96.626 MB
    Memory Efficiency: 100.0% (useful data vs total)
    Memory Hotspot: circuit_gates (100.0% of object)
  Memory/Clique: 0.006 MB (prev: 0.006 MB)
  → Net Memory Delta: CPU +151.32 MB, GPU +22.00 MB [Circuit: 134.0MB + Data: 121.2MB + Overhead: -103.9MB]
Processing operator 59/645 - CPU: 5369.93 MB, GPU: 38.0841 GB free
Operator 59: 73904 Pauli terms -> 22036 cliques (efficiency: 29.8%) - Memory: 121.54 MB
  STL Containers (temp): PauliMap=98.55MB, CommOps=52.51MB, Cliques=1.57MB
  Container Overhead: PauliMap=1.0x, CommOps=10.3x
  Container Details: CommOps size=73904, capacity=764672, PauliMap size=764672, buckets=1447153
  Accumulated Data: Coeffs=66.53MB, ZMasks=66.53MB, Observables=23.35MB
  Circuit + Temp Memory: +139.05 MB, Persistent Circuit: +132.55 MB, Cleaned Temp: 6.50 MB (cleanup: 4.3%)
  Cumulative Circuit Memory: 4731.37 MB (Total circuits: 787095)
  Complete Ansatz Memory Breakdown:
    shared_ptr overhead: 0.19 KB
    theta (params): 0.02 KB (0/0)
    parameterized_gates: 0.02 KB (0/0)
    gate_parameter_pointers: 0.02 KB (nested structure)
    gate_coefficients: 0.02 KB (estimated)
    excitation_index_map: 0.06 KB (string map)
    circuit_gates: 98038.90 KB (570408/570408)
    object_overhead: 0.25 KB
    Total Ansatz Object: 95.742 MB
    Memory Efficiency: 100.0% (useful data vs total)
    Memory Hotspot: circuit_gates (100.0% of object)
  Memory/Clique: 0.006 MB (prev: 0.006 MB)
  → Net Memory Delta: CPU +150.09 MB, GPU +22.00 MB [Circuit: 132.5MB + Data: 121.5MB + Overhead: -104.0MB]

--- SUMMARY: Operators 50-59 ---
  Batch Memory Growth: +1588.29 MB
  Pauli Terms Generated: 752576
  Commuting Groups: 236574
  Average Efficiency: 31.5%
  Cumulative Memory: 5520.02 MB
  Average Memory/Operator: 158.83 MB
  Theoretical Memory/Op: 4.61 MB (bloat factor: 34.5x)
  Memory Growth Rate: 158.8 MB/op
  Memory Bloat Factor: 34.5x
  System Memory Pressure: 11.8%
--- END SUMMARY ---

Processing operator 60/645 - CPU: 5520.02 MB, GPU: 38.0626 GB free
Operator 60: 73904 Pauli terms -> 23158 cliques (efficiency: 31.3%) - Memory: 120.82 MB
[...]
  Cumulative Circuit Memory: 66143.27 MB (Total circuits: 10954888)
  Complete Ansatz Memory Breakdown:
    shared_ptr overhead: 0.19 KB
    theta (params): 0.02 KB (0/0)
    parameterized_gates: 0.02 KB (0/0)
    gate_parameter_pointers: 0.02 KB (nested structure)
    gate_coefficients: 0.02 KB (estimated)
    excitation_index_map: 0.06 KB (string map)
    circuit_gates: 97472.23 KB (567111/567111)
    object_overhead: 0.25 KB
    Total Ansatz Object: 95.188 MB
    Memory Efficiency: 100.0% (useful data vs total)
    Memory Hotspot: circuit_gates (100.0% of object)
  Memory/Clique: 0.006 MB (prev: 0.006 MB)
  → Net Memory Delta: CPU +145.61 MB, GPU +22.00 MB [Circuit: 129.4MB + Data: 121.7MB + Overhead: -105.5MB]
Processing operator 518/645 - CPU: 73656.04 MB, GPU: 28.0587 GB free
Operator 518: 66752 Pauli terms -> 22153 cliques (efficiency: 33.2%) - Memory: 125.90 MB
  STL Containers (temp): PauliMap=102.54MB, CommOps=54.90MB, Cliques=1.52MB
  Container Overhead: PauliMap=1.0x, CommOps=12.0x
  Container Details: CommOps size=66752, capacity=799519, PauliMap size=799519, buckets=1447153
  Accumulated Data: Coeffs=527.61MB, ZMasks=527.61MB, Observables=334.32MB
  Circuit + Temp Memory: +139.98 MB, Persistent Circuit: +135.39 MB, Cleaned Temp: 4.59 MB (cleanup: 2.9%)
  Cumulative Circuit Memory: 66278.67 MB (Total circuits: 10977041)
  Complete Ansatz Memory Breakdown:
    shared_ptr overhead: 0.19 KB
    theta (params): 0.02 KB (0/0)
    parameterized_gates: 0.02 KB (0/0)
    gate_parameter_pointers: 0.02 KB (nested structure)
    gate_coefficients: 0.02 KB (estimated)
    excitation_index_map: 0.06 KB (string map)
    circuit_gates: 96194.51 KB (559677/559677)
    object_overhead: 0.25 KB
    Total Ansatz Object: 93.941 MB
    Memory Efficiency: 100.0% (useful data vs total)
    Memory Hotspot: circuit_gates (100.0% of object)
  Memory/Clique: 0.006 MB (prev: 0.006 MB)
  → Net Memory Delta: CPU +151.15 MB, GPU +22.00 MB [Circuit: 135.4MB + Data: 125.9MB + Overhead: -110.1MB]
Processing operator 519/645 - CPU: 73807.18 MB, GPU: 28.0372 GB free
Operator 519: 77680 Pauli terms -> 19124 cliques (efficiency: 24.6%) - Memory: 117.17 MB
  STL Containers (temp): PauliMap=95.16MB, CommOps=50.47MB, Cliques=1.47MB
  Container Overhead: PauliMap=1.0x, CommOps=9.5x
  Container Details: CommOps size=77680, capacity=735039, PauliMap size=735039, buckets=1447153
  Accumulated Data: Coeffs=615.17MB, ZMasks=615.17MB, Observables=334.99MB
  Circuit + Temp Memory: +120.31 MB, Persistent Circuit: +114.97 MB, Cleaned Temp: 5.34 MB (cleanup: 3.6%)
  Cumulative Circuit Memory: 66393.64 MB (Total circuits: 10996165)
  Complete Ansatz Memory Breakdown:
    shared_ptr overhead: 0.19 KB
    theta (params): 0.02 KB (0/0)
    parameterized_gates: 0.02 KB (0/0)
    gate_parameter_pointers: 0.02 KB (nested structure)
    gate_coefficients: 0.02 KB (estimated)
    excitation_index_map: 0.06 KB (string map)
    circuit_gates: 86853.96 KB (505332/505332)
    object_overhead: 0.25 KB
    Total Ansatz Object: 84.819 MB
    Memory Efficiency: 100.0% (useful data vs total)
    Memory Hotspot: circuit_gates (100.0% of object)
  Memory/Clique: 0.006 MB (prev: 0.006 MB)
  → Net Memory Delta: CPU +131.36 MB, GPU +18.00 MB [Circuit: 115.0MB + Data: 117.2MB + Overhead: -100.8MB]

--- SUMMARY: Operators 510-519 ---
  Batch Memory Growth: +1332.42 MB
  Pauli Terms Generated: 728748
  Commuting Groups: 197327
  Average Efficiency: 27.1%
  Cumulative Memory: 73938.54 MB
  Average Memory/Operator: 133.24 MB
  Theoretical Memory/Op: 4.08 MB (bloat factor: 32.7x)
  Memory Growth Rate: 133.2 MB/op
  Memory Bloat Factor: 32.7x
  System Memory Pressure: 37.3%
--- END SUMMARY ---

Processing operator 520/645 - CPU: 73938.54 MB, GPU: 28.0197 GB free
Operator 520: 77680 Pauli terms -> 18534 cliques (efficiency: 23.9%) - Memory: 116.99 MB
  STL Containers (temp): PauliMap=95.09MB, CommOps=50.43MB, Cliques=1.44MB
  Container Overhead: PauliMap=1.0x, CommOps=9.5x
  Container Details: CommOps size=77680, capacity=734399, PauliMap size=734399, buckets=1447153
  Accumulated Data: Coeffs=616.36MB, ZMasks=616.36MB, Observables=335.58MB
  Circuit + Temp Memory: +121.38 MB, Persistent Circuit: +116.04 MB, Cleaned Temp: 5.34 MB (cleanup: 3.6%)
  Cumulative Circuit Memory: 66509.68 MB (Total circuits: 11014699)
  Complete Ansatz Memory Breakdown:
    shared_ptr overhead: 0.19 KB
    theta (params): 0.02 KB (0/0)
    parameterized_gates: 0.02 KB (0/0)
    gate_parameter_pointers: 0.02 KB (nested structure)
    gate_coefficients: 0.02 KB (estimated)
    excitation_index_map: 0.06 KB (string map)
    circuit_gates: 84528.15 KB (491800/491800)
    object_overhead: 0.25 KB
    Total Ansatz Object: 82.548 MB
    Memory Efficiency: 100.0% (useful data vs total)
    Memory Hotspot: circuit_gates (100.0% of object)
  Memory/Clique: 0.006 MB (prev: 0.006 MB)
  → Net Memory Delta: CPU +132.43 MB, GPU +20.00 MB [Circuit: 116.0MB + Data: 117.0MB + Overhead: -100.6MB]
Processing operator 521/645 - CPU: 74070.96 MB, GPU: 28.0001 GB free
Operator 521: 71334 Pauli terms -> 15940 cliques (efficiency: 22.3%) - Memory: 112.78 MB
  STL Containers (temp): PauliMap=86.97MB, CommOps=48.92MB, Cliques=1.27MB
  Container Overhead: PauliMap=1.0x, CommOps=10.0x
  Container Details: CommOps size=71334, capacity=712444, PauliMap size=712444, buckets=712697
  Accumulated Data: Coeffs=567.09MB, ZMasks=567.09MB, Observables=336.14MB
  Circuit + Temp Memory: +113.51 MB, Persistent Circuit: +108.61 MB, Cleaned Temp: 4.90 MB (cleanup: 3.6%)
  Cumulative Circuit Memory: 66618.29 MB (Total circuits: 11030639)
  Complete Ansatz Memory Breakdown:
    shared_ptr overhead: 0.19 KB
    theta (params): 0.02 KB (0/0)
    parameterized_gates: 0.02 KB (0/0)
    gate_parameter_pointers: 0.02 KB (nested structure)
    gate_coefficients: 0.02 KB (estimated)
    excitation_index_map: 0.06 KB (string map)
    circuit_gates: 73396.15 KB (427032/427032)
    object_overhead: 0.25 KB
    Total Ansatz Object: 71.677 MB
    Memory Efficiency: 100.0% (useful data vs total)
    Memory Hotspot: circuit_gates (100.0% of object)
  Memory/Clique: 0.007 MB (prev: 0.006 MB)
  → Net Memory Delta: CPU +113.51 MB, GPU +16.00 MB [Circuit: 108.6MB + Data: 112.8MB + Overhead: -107.9MB]
Processing operator 522/645 - CPU: 74184.47 MB, GPU: 27.9845 GB free
Operator 522: 77680 Pauli terms -> 19326 cliques (efficiency: 24.9%) - Memory: 117.77 MB
  STL Containers (temp): PauliMap=95.61MB, CommOps=50.74MB, Cliques=1.48MB
  Container Overhead: PauliMap=1.0x, CommOps=9.5x
  Container Details: CommOps size=77680, capacity=738943, PauliMap size=738943, buckets=1447153
  Accumulated Data: Coeffs=618.73MB, ZMasks=618.73MB, Observables=336.63MB
  Circuit + Temp Memory: +125.63 MB, Persistent Circuit: +120.29 MB, Cleaned Temp: 5.34 MB (cleanup: 3.6%)
  Cumulative Circuit Memory: 66738.59 MB (Total circuits: 11049965)
  Complete Ansatz Memory Breakdown:
    shared_ptr overhead: 0.19 KB
    theta (params): 0.02 KB (0/0)
    parameterized_gates: 0.02 KB (0/0)
    gate_parameter_pointers: 0.02 KB (nested structure)
    gate_coefficients: 0.02 KB (estimated)
    excitation_index_map: 0.06 KB (string map)
    circuit_gates: 86501.27 KB (503280/503280)
    object_overhead: 0.25 KB
    Total Ansatz Object: 84.474 MB
    Memory Efficiency: 100.0% (useful data vs total)
    Memory Hotspot: circuit_gates (100.0% of object)
  Memory/Clique: 0.006 MB (prev: 0.007 MB)
  → Net Memory Delta: CPU +125.63 MB, GPU +20.00 MB [Circuit: 120.3MB + Data: 117.8MB + Overhead: -112.4MB]
Processing operator 523/645 - CPU: 74310.10 MB, GPU: 27.9650 GB free
Operator 523: 77680 Pauli terms -> 21280 cliques (efficiency: 27.4%) - Memory: 117.74 MB
  STL Containers (temp): PauliMap=95.35MB, CommOps=50.59MB, Cliques=1.57MB
  Container Overhead: PauliMap=1.0x, CommOps=9.5x
  Container Details: CommOps size=77680, capacity=736703, PauliMap size=736703, buckets=1447153
  Accumulated Data: Coeffs=619.91MB, ZMasks=619.91MB, Observables=337.22MB
  Circuit + Temp Memory: +132.84 MB, Persistent Circuit: +127.50 MB, Cleaned Temp: 5.34 MB (cleanup: 3.6%)
  Cumulative Circuit Memory: 66866.09 MB (Total circuits: 11071245)
  Complete Ansatz Memory Breakdown:
    shared_ptr overhead: 0.19 KB
    theta (params): 0.02 KB (0/0)
    parameterized_gates: 0.02 KB (0/0)
    gate_parameter_pointers: 0.02 KB (nested structure)
    gate_coefficients: 0.02 KB (estimated)
    excitation_index_map: 0.06 KB (string map)
    circuit_gates: 93447.43 KB (543694/543694)
    object_overhead: 0.25 KB
    Total Ansatz Object: 91.258 MB
    Memory Efficiency: 100.0% (useful data vs total)
    Memory Hotspot: circuit_gates (100.0% of object)
  Memory/Clique: 0.006 MB (prev: 0.006 MB)
  → Net Memory Delta: CPU +143.89 MB, GPU +20.00 MB [Circuit: 127.5MB + Data: 117.7MB + Overhead: -101.4MB]
Processing operator 524/645 - CPU: 74453.99 MB, GPU: 27.9454 GB free
Operator 524: 75240 Pauli terms -> 23440 cliques (efficiency: 31.2%) - Memory: 121.98 MB
  STL Containers (temp): PauliMap=98.62MB, CommOps=52.55MB, Cliques=1.65MB
  Container Overhead: PauliMap=1.0x, CommOps=10.2x
  Container Details: CommOps size=75240, capacity=765296, PauliMap size=765296, buckets=1447153
  Accumulated Data: Coeffs=601.59MB, ZMasks=601.59MB, Observables=337.87MB
  Circuit + Temp Memory: +141.17 MB, Persistent Circuit: +136.01 MB, Cleaned Temp: 5.16 MB (cleanup: 3.4%)
  Cumulative Circuit Memory: 67002.10 MB (Total circuits: 11094685)
  Complete Ansatz Memory Breakdown:
    shared_ptr overhead: 0.19 KB
    theta (params): 0.02 KB (0/0)
    parameterized_gates: 0.02 KB (0/0)
    gate_parameter_pointers: 0.02 KB (nested structure)
    gate_coefficients: 0.02 KB (estimated)
    excitation_index_map: 0.06 KB (string map)
    circuit_gates: 103445.74 KB (601866/601866)
    object_overhead: 0.25 KB
    Total Ansatz Object: 101.022 MB
    Memory Efficiency: 100.0% (useful data vs total)
    Memory Hotspot: circuit_gates (100.0% of object)
  Memory/Clique: 0.006 MB (prev: 0.006 MB)
  → Net Memory Delta: CPU +152.22 MB, GPU +24.00 MB [Circuit: 136.0MB + Data: 122.0MB + Overhead: -105.8MB]
Processing operator 525/645 - CPU: 74606.21 MB, GPU: 27.9220 GB free
Operator 525: 38976 Pauli terms -> 10921 cliques (efficiency: 28.0%) - Memory: 59.33 MB
  STL Containers (temp): PauliMap=47.91MB, CommOps=25.48MB, Cliques=0.80MB
  Container Overhead: PauliMap=1.0x, CommOps=9.5x
  Container Details: CommOps size=38976, capacity=371120, PauliMap size=371120, buckets=712697
  Accumulated Data: Coeffs=312.23MB, ZMasks=312.23MB, Observables=338.58MB
  Circuit + Temp Memory: +78.58 MB, Persistent Circuit: +78.58 MB, Cleaned Temp: 0.00 MB (cleanup: 0.0%)
  Cumulative Circuit Memory: 67080.68 MB (Total circuits: 11105606)
  Complete Ansatz Memory Breakdown:
    shared_ptr overhead: 0.19 KB
    theta (params): 0.02 KB (0/0)
    parameterized_gates: 0.02 KB (0/0)
    gate_parameter_pointers: 0.02 KB (nested structure)
    gate_coefficients: 0.02 KB (estimated)
    excitation_index_map: 0.06 KB (string map)
    circuit_gates: 46126.63 KB (268373/268373)
    object_overhead: 0.25 KB
    Total Ansatz Object: 45.046 MB
    Memory Efficiency: 100.0% (useful data vs total)
    Memory Hotspot: circuit_gates (100.0% of object)
  Memory/Clique: 0.007 MB (prev: 0.006 MB)
  → Net Memory Delta: CPU +81.44 MB, GPU +12.00 MB [Circuit: 78.6MB + Data: 59.3MB + Overhead: -56.5MB]
Processing operator 526/645 - CPU: 74687.65 MB, GPU: 27.9103 GB free
Operator 526: 71334 Pauli terms -> 20762 cliques (efficiency: 29.1%) - Memory: 113.91 MB
  STL Containers (temp): PauliMap=92.88MB, CommOps=49.11MB, Cliques=1.49MB
  Container Overhead: PauliMap=1.0x, CommOps=10.0x
  Container Details: CommOps size=71334, capacity=715164, PauliMap size=715164, buckets=1447153
  Accumulated Data: Coeffs=572.54MB, ZMasks=572.54MB, Observables=338.92MB
  Circuit + Temp Memory: +116.09 MB, Persistent Circuit: +111.20 MB, Cleaned Temp: 4.90 MB (cleanup: 3.4%)
  Cumulative Circuit Memory: 67191.87 MB (Total circuits: 11126368)
  Complete Ansatz Memory Breakdown:
    shared_ptr overhead: 0.19 KB
    theta (params): 0.02 KB (0/0)
    parameterized_gates: 0.02 KB (0/0)
    gate_parameter_pointers: 0.02 KB (nested structure)
    gate_coefficients: 0.02 KB (estimated)
    excitation_index_map: 0.06 KB (string map)
    circuit_gates: 88033.71 KB (512196/512196)
    object_overhead: 0.25 KB
    Total Ansatz Object: 85.971 MB
    Memory Efficiency: 100.0% (useful data vs total)
    Memory Hotspot: circuit_gates (100.0% of object)
  Memory/Clique: 0.005 MB (prev: 0.007 MB)
  → Net Memory Delta: CPU +129.89 MB, GPU +20.00 MB [Circuit: 111.2MB + Data: 113.9MB + Overhead: -95.2MB]
Processing operator 527/645 - CPU: 74817.55 MB, GPU: 27.8907 GB free
Operator 527: 70360 Pauli terms -> 22634 cliques (efficiency: 32.2%) - Memory: 119.40 MB
  STL Containers (temp): PauliMap=97.07MB, CommOps=51.62MB, Cliques=1.57MB
  Container Overhead: PauliMap=1.0x, CommOps=10.7x
  Container Details: CommOps size=70360, capacity=751712, PauliMap size=751712, buckets=1447153
  Accumulated Data: Coeffs=565.79MB, ZMasks=565.79MB, Observables=339.55MB
  Circuit + Temp Memory: +135.03 MB, Persistent Circuit: +130.20 MB, Cleaned Temp: 4.83 MB (cleanup: 3.2%)
  Cumulative Circuit Memory: 67322.07 MB (Total circuits: 11149002)
  Complete Ansatz Memory Breakdown:
    shared_ptr overhead: 0.19 KB
    theta (params): 0.02 KB (0/0)
    parameterized_gates: 0.02 KB (0/0)
    gate_parameter_pointers: 0.02 KB (nested structure)
    gate_coefficients: 0.02 KB (estimated)
    excitation_index_map: 0.06 KB (string map)
    circuit_gates: 96805.87 KB (563234/563234)
    object_overhead: 0.25 KB
    Total Ansatz Object: 94.538 MB
    Memory Efficiency: 100.0% (useful data vs total)
    Memory Hotspot: circuit_gates (100.0% of object)
  Memory/Clique: 0.006 MB (prev: 0.005 MB)
  → Net Memory Delta: CPU +146.08 MB, GPU +22.00 MB [Circuit: 130.2MB + Data: 119.4MB + Overhead: -103.5MB]
Processing operator 528/645 - CPU: 74963.63 MB, GPU: 27.8693 GB free
Operator 528: 75240 Pauli terms -> 20843 cliques (efficiency: 27.7%) - Memory: 121.61 MB
  STL Containers (temp): PauliMap=98.64MB, CommOps=52.56MB, Cliques=1.53MB
  Container Overhead: PauliMap=1.0x, CommOps=10.2x
  Container Details: CommOps size=75240, capacity=765488, PauliMap size=765488, buckets=1447153
  Accumulated Data: Coeffs=606.18MB, ZMasks=606.18MB, Observables=340.24MB
  Circuit + Temp Memory: +131.83 MB, Persistent Circuit: +126.66 MB, Cleaned Temp: 5.16 MB (cleanup: 3.4%)
  Cumulative Circuit Memory: 67448.74 MB (Total circuits: 11169845)
  Complete Ansatz Memory Breakdown:
    shared_ptr overhead: 0.19 KB
    theta (params): 0.02 KB (0/0)
    parameterized_gates: 0.02 KB (0/0)
    gate_parameter_pointers: 0.02 KB (nested structure)
    gate_coefficients: 0.02 KB (estimated)
    excitation_index_map: 0.06 KB (string map)
    circuit_gates: 93022.04 KB (541219/541219)
    object_overhead: 0.25 KB
    Total Ansatz Object: 90.842 MB
    Memory Efficiency: 100.0% (useful data vs total)
    Memory Hotspot: circuit_gates (100.0% of object)
  Memory/Clique: 0.006 MB (prev: 0.006 MB)
  → Net Memory Delta: CPU +143.48 MB, GPU +22.00 MB [Circuit: 126.7MB + Data: 121.6MB + Overhead: -104.8MB]
Processing operator 529/645 - CPU: 75107.11 MB, GPU: 27.8478 GB free
Operator 529: 75240 Pauli terms -> 20016 cliques (efficiency: 26.6%) - Memory: 121.45 MB
  STL Containers (temp): PauliMap=98.62MB, CommOps=52.55MB, Cliques=1.49MB
  Container Overhead: PauliMap=1.0x, CommOps=10.2x
  Container Details: CommOps size=75240, capacity=765264, PauliMap size=765264, buckets=1447153
  Accumulated Data: Coeffs=607.33MB, ZMasks=607.33MB, Observables=340.88MB
  Circuit + Temp Memory: +126.01 MB, Persistent Circuit: +120.84 MB, Cleaned Temp: 5.16 MB (cleanup: 3.4%)
  Cumulative Circuit Memory: 67569.58 MB (Total circuits: 11189861)
  Complete Ansatz Memory Breakdown:
    shared_ptr overhead: 0.19 KB
    theta (params): 0.02 KB (0/0)
    parameterized_gates: 0.02 KB (0/0)
    gate_parameter_pointers: 0.02 KB (nested structure)
    gate_coefficients: 0.02 KB (estimated)
    excitation_index_map: 0.06 KB (string map)
    circuit_gates: 90423.80 KB (526102/526102)
    object_overhead: 0.25 KB
    Total Ansatz Object: 88.305 MB
    Memory Efficiency: 100.0% (useful data vs total)
    Memory Hotspot: circuit_gates (100.0% of object)
  Memory/Clique: 0.006 MB (prev: 0.006 MB)
  → Net Memory Delta: CPU +137.45 MB, GPU +20.00 MB [Circuit: 120.8MB + Data: 121.4MB + Overhead: -104.8MB]

--- SUMMARY: Operators 520-529 ---
  Batch Memory Growth: +1306.02 MB
  Pauli Terms Generated: 710764
  Commuting Groups: 193696
  Average Efficiency: 27.3%
  Cumulative Memory: 75244.56 MB
  Average Memory/Operator: 130.60 MB
  Theoretical Memory/Op: 3.99 MB (bloat factor: 32.7x)
  Memory Growth Rate: 130.6 MB/op
  Memory Bloat Factor: 32.7x
  System Memory Pressure: 37.8%
--- END SUMMARY ---

Processing operator 530/645 - CPU: 75244.56 MB, GPU: 27.8282 GB free
Operator 530: 75240 Pauli terms -> 19857 cliques (efficiency: 26.4%) - Memory: 121.56 MB
  STL Containers (temp): PauliMap=98.73MB, CommOps=52.61MB, Cliques=1.48MB
  Container Overhead: PauliMap=1.0x, CommOps=10.2x
  Container Details: CommOps size=75240, capacity=766224, PauliMap size=766224, buckets=1447153
  Accumulated Data: Coeffs=608.48MB, ZMasks=608.48MB, Observables=341.49MB
  Circuit + Temp Memory: +124.67 MB, Persistent Circuit: +119.50 MB, Cleaned Temp: 5.16 MB (cleanup: 3.4%)
  Cumulative Circuit Memory: 67689.09 MB (Total circuits: 11209718)
  Complete Ansatz Memory Breakdown:
    shared_ptr overhead: 0.19 KB
    theta (params): 0.02 KB (0/0)
    parameterized_gates: 0.02 KB (0/0)
    gate_parameter_pointers: 0.02 KB (nested structure)
    gate_coefficients: 0.02 KB (estimated)
    excitation_index_map: 0.06 KB (string map)
    circuit_gates: 89931.38 KB (523237/523237)
    object_overhead: 0.25 KB
    Total Ansatz Object: 87.824 MB
    Memory Efficiency: 100.0% (useful data vs total)
    Memory Hotspot: circuit_gates (100.0% of object)
  Memory/Clique: 0.006 MB (prev: 0.006 MB)
  → Net Memory Delta: CPU +136.76 MB, GPU +20.00 MB [Circuit: 119.5MB + Data: 121.6MB + Overhead: -104.3MB]
Processing operator 531/645 - CPU: 75381.32 MB, GPU: 27.8087 GB free
Operator 531: 70360 Pauli terms -> 18931 cliques (efficiency: 26.9%) - Memory: 119.32 MB
  STL Containers (temp): PauliMap=97.45MB, CommOps=51.84MB, Cliques=1.40MB
  Container Overhead: PauliMap=1.0x, CommOps=10.7x
  Container Details: CommOps size=70360, capacity=755040, PauliMap size=755040, buckets=1447153
  Accumulated Data: Coeffs=570.09MB, ZMasks=570.09MB, Observables=342.09MB
  Circuit + Temp Memory: +123.79 MB, Persistent Circuit: +118.95 MB, Cleaned Temp: 4.83 MB (cleanup: 3.2%)
  Cumulative Circuit Memory: 67808.04 MB (Total circuits: 11228649)
  Complete Ansatz Memory Breakdown:
    shared_ptr overhead: 0.19 KB
    theta (params): 0.02 KB (0/0)
    parameterized_gates: 0.02 KB (0/0)
    gate_parameter_pointers: 0.02 KB (nested structure)
    gate_coefficients: 0.02 KB (estimated)
    excitation_index_map: 0.06 KB (string map)
    circuit_gates: 83964.91 KB (488523/488523)
    object_overhead: 0.25 KB
    Total Ansatz Object: 81.998 MB
    Memory Efficiency: 100.0% (useful data vs total)
    Memory Hotspot: circuit_gates (100.0% of object)
  Memory/Clique: 0.006 MB (prev: 0.006 MB)
  → Net Memory Delta: CPU +135.68 MB, GPU +20.00 MB [Circuit: 119.0MB + Data: 119.3MB + Overhead: -102.6MB]
Processing operator 532/645 - CPU: 75516.99 MB, GPU: 27.7892 GB free
Operator 532: 75240 Pauli terms -> 23084 cliques (efficiency: 30.7%) - Memory: 122.14 MB
  STL Containers (temp): PauliMap=98.80MB, CommOps=52.65MB, Cliques=1.63MB
  Container Overhead: PauliMap=1.0x, CommOps=10.2x
  Container Details: CommOps size=75240, capacity=766832, PauliMap size=766832, buckets=1447153
  Accumulated Data: Coeffs=610.77MB, ZMasks=610.77MB, Observables=342.67MB
