========================================
  NWQSim ADAPT-VQE Memory Profiling
========================================
CUDA detected. GPU information:
NVIDIA A100-SXM4-40GB, 40960, 40327, 1
NVIDIA A100-SXM4-40GB, 40960, 40327, 1
NVIDIA A100-SXM4-40GB, 40960, 40327, 1
NVIDIA A100-SXM4-40GB, 40960, 40327, 1

Configuration:
  Input file: /global/homes/z/zhen002/NSMem/H2O_1.75_Eq_11-Orbitals_DUCC3_H2O-1.75_Eq_DUCC3_10-electrons_11-Orbitals.out-xacc
  Output file: memory_profile_output.log
  Build type: GPU-enabled ADAPT-VQE

Starting ADAPT-VQE with GPU memory profiling...
Output will be saved to: memory_profile_output.log

=== ADAPT-VQE Memory Profiling Session ===
Date: Thu 18 Sep 2025 07:54:44 PM PDT
System Info:
  CPU: AMD EPYC 7763 64-Core Processor
  Total RAM: 251Gi
  Available RAM: 229Gi
GPU Info:
NVIDIA A100-SXM4-40GB, 40960 MiB
NVIDIA A100-SXM4-40GB, 40960 MiB
NVIDIA A100-SXM4-40GB, 40960 MiB
NVIDIA A100-SXM4-40GB, 40960 MiB

=== Initial Memory State ===
CPU Memory:
               total        used        free      shared  buff/cache   available
Mem:           251Gi        21Gi       235Gi       874Mi       1.5Gi       229Gi
Swap:             0B          0B          0B
GPU Memory:
40960, 40327, 1
40960, 40327, 1
40960, 40327, 1
40960, 40327, 1

Starting simulation...
Reading Hamiltonian...
Constructed 33016 Pauli observables
Constructing the ansatz...
Starting with 10 Gates and 0 parameters
Beginning ADAPT-VQE loop...

=== ADAPT-VQE Memory Profiling (CPU + GPU) ===
Initial CPU memory:
  RSS (Resident Set Size): 255.90 MB
Initial GPU memory:
  Total GPU memory: 39.3812 GB
  Free GPU memory: 38.8380 GB
  Used GPU memory: 0.5432 GB

Starting UCCSD operator pool allocation...
  Pool size: 645 operators
  Hamiltonian terms: 7833
Processing operator 0/645 - CPU: 255.90 MB, GPU: 38.8380 GB free
Operator 0: 11136 Pauli terms -> 3077 cliques (efficiency: 27.6%) - Memory: 32.65 MB
  STL Containers: PauliMap=27.21MB, CommOps=14.72MB, Cliques=0.23MB
  Container Overhead: PauliMap=1.0x, CommOps=19.2x
  Container Details: CommOps size=11136, capacity=214357, PauliMap size=214357, buckets=351061
  Accumulated Data: Coeffs=0.00MB, ZMasks=0.00MB, Observables=0.00MB
  Circuit + Temp Memory: +11.42 MB, Persistent Circuit: +10.65 MB, Cleaned Temp: 0.77 MB
  Cumulative Circuit Memory: 10.65 MB (Total circuits: 0)
  Complete Ansatz Memory Breakdown:
    shared_ptr overhead: 0.19 KB
    theta (params): 0.02 KB (0/0)
    parameterized_gates: 0.02 KB (0/0)
    gate_parameter_pointers: 0.02 KB (nested structure)
    gate_coefficients: 0.02 KB (estimated)
    excitation_index_map: 0.06 KB (string map)
    circuit_gates: 20070.90 KB (61221/116776)
    object_overhead: 0.25 KB
    Total Ansatz Object: 19.601 MB
    Memory Efficiency: 52.4% (useful data vs total)
    Memory Hotspot: circuit_gates (100.0% of object)
  Memory/Clique: No cliques available for analysis
  → Net Memory Delta: CPU +11.52 MB, GPU +4.00 MB [circuit vs delta: 0.9 MB diff]
Processing operator 1/645 - CPU: 267.42 MB, GPU: 38.8341 GB free
Operator 1: 11136 Pauli terms -> 2962 cliques (efficiency: 26.6%) - Memory: 32.58 MB
  STL Containers: PauliMap=27.17MB, CommOps=14.69MB, Cliques=0.22MB
  Container Overhead: PauliMap=1.0x, CommOps=19.2x
  Container Details: CommOps size=11136, capacity=214009, PauliMap size=214009, buckets=351061
  Accumulated Data: Coeffs=0.17MB, ZMasks=0.17MB, Observables=0.09MB
  Circuit + Temp Memory: +22.11 MB, Persistent Circuit: +22.11 MB, Cleaned Temp: 0.00 MB
  Cumulative Circuit Memory: 32.76 MB (Total circuits: 0)
  Complete Ansatz Memory Breakdown:
    shared_ptr overhead: 0.19 KB
    theta (params): 0.02 KB (0/0)
    parameterized_gates: 0.02 KB (0/0)
    gate_parameter_pointers: 0.02 KB (nested structure)
    gate_coefficients: 0.02 KB (estimated)
    excitation_index_map: 0.06 KB (string map)
    circuit_gates: 15172.80 KB (60336/88278)
    object_overhead: 0.25 KB
    Total Ansatz Object: 14.818 MB
    Memory Efficiency: 68.3% (useful data vs total)
    Memory Hotspot: circuit_gates (100.0% of object)
  Memory/Clique: No cliques available for analysis
  → Net Memory Delta: CPU +22.89 MB, GPU +4.00 MB [circuit vs delta: 0.8 MB diff]
Processing operator 2/645 - CPU: 290.31 MB, GPU: 38.8302 GB free
Operator 2: 11136 Pauli terms -> 2991 cliques (efficiency: 26.9%) - Memory: 32.73 MB
  STL Containers: PauliMap=27.29MB, CommOps=14.77MB, Cliques=0.22MB
  Container Overhead: PauliMap=1.0x, CommOps=19.3x
  Container Details: CommOps size=11136, capacity=215041, PauliMap size=215041, buckets=351061
  Accumulated Data: Coeffs=0.34MB, ZMasks=0.34MB, Observables=0.18MB
  Circuit + Temp Memory: +17.07 MB, Persistent Circuit: +16.42 MB, Cleaned Temp: 0.65 MB
  Cumulative Circuit Memory: 49.18 MB (Total circuits: 0)
  Complete Ansatz Memory Breakdown:
    shared_ptr overhead: 0.19 KB
    theta (params): 0.02 KB (0/0)
    parameterized_gates: 0.02 KB (0/0)
    gate_parameter_pointers: 0.02 KB (nested structure)
    gate_coefficients: 0.02 KB (estimated)
    excitation_index_map: 0.06 KB (string map)
    circuit_gates: 14156.34 KB (61665/82364)
    object_overhead: 0.25 KB
    Total Ansatz Object: 13.825 MB
    Memory Efficiency: 74.9% (useful data vs total)
    Memory Hotspot: circuit_gates (100.0% of object)
  Memory/Clique: No cliques available for analysis
  → Net Memory Delta: CPU +17.18 MB, GPU +2.00 MB [circuit vs delta: 0.8 MB diff]
Processing operator 3/645 - CPU: 307.48 MB, GPU: 38.8282 GB free
Operator 3: 11136 Pauli terms -> 3037 cliques (efficiency: 27.3%) - Memory: 32.89 MB
  STL Containers: PauliMap=27.41MB, CommOps=14.84MB, Cliques=0.22MB
  Container Overhead: PauliMap=1.0x, CommOps=19.4x
  Container Details: CommOps size=11136, capacity=216109, PauliMap size=216109, buckets=351061
  Accumulated Data: Coeffs=0.51MB, ZMasks=0.51MB, Observables=0.28MB
  Circuit + Temp Memory: +17.85 MB, Persistent Circuit: +17.08 MB, Cleaned Temp: 0.77 MB
  Cumulative Circuit Memory: 66.27 MB (Total circuits: 0)
  Complete Ansatz Memory Breakdown:
    shared_ptr overhead: 0.19 KB
    theta (params): 0.02 KB (0/0)
    parameterized_gates: 0.02 KB (0/0)
    gate_parameter_pointers: 0.02 KB (nested structure)
    gate_coefficients: 0.02 KB (estimated)
    excitation_index_map: 0.06 KB (string map)
    circuit_gates: 13672.34 KB (62229/79548)
    object_overhead: 0.25 KB
    Total Ansatz Object: 13.352 MB
    Memory Efficiency: 78.2% (useful data vs total)
    Memory Hotspot: circuit_gates (100.0% of object)
  Memory/Clique: No cliques available for analysis
  → Net Memory Delta: CPU +17.59 MB, GPU +4.00 MB [circuit vs delta: 0.5 MB diff]
Processing operator 4/645 - CPU: 325.08 MB, GPU: 38.8243 GB free
Operator 4: 11136 Pauli terms -> 3064 cliques (efficiency: 27.5%) - Memory: 32.67 MB
  STL Containers: PauliMap=27.23MB, CommOps=14.73MB, Cliques=0.23MB
  Container Overhead: PauliMap=1.0x, CommOps=19.3x
  Container Details: CommOps size=11136, capacity=214549, PauliMap size=214549, buckets=351061
  Accumulated Data: Coeffs=0.68MB, ZMasks=0.68MB, Observables=0.37MB
  Circuit + Temp Memory: +25.85 MB, Persistent Circuit: +25.85 MB, Cleaned Temp: 0.00 MB
  Cumulative Circuit Memory: 92.11 MB (Total circuits: 0)
  Complete Ansatz Memory Breakdown:
    shared_ptr overhead: 0.19 KB
    theta (params): 0.02 KB (0/0)
    parameterized_gates: 0.02 KB (0/0)
    gate_parameter_pointers: 0.02 KB (nested structure)
    gate_coefficients: 0.02 KB (estimated)
    excitation_index_map: 0.06 KB (string map)
    circuit_gates: 18571.12 KB (62854/108050)
    object_overhead: 0.25 KB
    Total Ansatz Object: 18.136 MB
    Memory Efficiency: 58.2% (useful data vs total)
    Memory Hotspot: circuit_gates (100.0% of object)
  Memory/Clique: No cliques available for analysis
  → Net Memory Delta: CPU +26.36 MB, GPU +2.00 MB [circuit vs delta: 0.5 MB diff]
Processing operator 5/645 - CPU: 351.44 MB, GPU: 38.8224 GB free
Operator 5: 9384 Pauli terms -> 3152 cliques (efficiency: 33.6%) - Memory: 34.09 MB
  STL Containers: PauliMap=28.47MB, CommOps=15.48MB, Cliques=0.22MB
  Container Overhead: PauliMap=1.0x, CommOps=24.0x
  Container Details: CommOps size=9384, capacity=225412, PauliMap size=225412, buckets=351061
  Accumulated Data: Coeffs=0.72MB, ZMasks=0.72MB, Observables=0.46MB
  Circuit + Temp Memory: +18.05 MB, Persistent Circuit: +17.62 MB, Cleaned Temp: 0.43 MB
  Cumulative Circuit Memory: 109.73 MB (Total circuits: 0)
  Complete Ansatz Memory Breakdown:
    shared_ptr overhead: 0.19 KB
    theta (params): 0.02 KB (0/0)
    parameterized_gates: 0.02 KB (0/0)
    gate_parameter_pointers: 0.02 KB (nested structure)
    gate_coefficients: 0.02 KB (estimated)
    excitation_index_map: 0.06 KB (string map)
    circuit_gates: 20422.90 KB (65288/118824)
    object_overhead: 0.25 KB
    Total Ansatz Object: 19.945 MB
    Memory Efficiency: 54.9% (useful data vs total)
    Memory Hotspot: circuit_gates (100.0% of object)
  Memory/Clique: No cliques available for analysis
  → Net Memory Delta: CPU +18.37 MB, GPU +4.00 MB [circuit vs delta: 0.8 MB diff]
Processing operator 6/645 - CPU: 369.80 MB, GPU: 38.8185 GB free
Operator 6: 11136 Pauli terms -> 2949 cliques (efficiency: 26.5%) - Memory: 32.63 MB
  STL Containers: PauliMap=27.21MB, CommOps=14.72MB, Cliques=0.22MB
  Container Overhead: PauliMap=1.0x, CommOps=19.2x
  Container Details: CommOps size=11136, capacity=214365, PauliMap size=214365, buckets=351061
  Accumulated Data: Coeffs=1.02MB, ZMasks=1.02MB, Observables=0.56MB
  Circuit + Temp Memory: +19.32 MB, Persistent Circuit: +19.32 MB, Cleaned Temp: 0.00 MB
  Cumulative Circuit Memory: 129.05 MB (Total circuits: 0)
  Complete Ansatz Memory Breakdown:
    shared_ptr overhead: 0.19 KB
    theta (params): 0.02 KB (0/0)
    parameterized_gates: 0.02 KB (0/0)
    gate_parameter_pointers: 0.02 KB (nested structure)
    gate_coefficients: 0.02 KB (estimated)
    excitation_index_map: 0.06 KB (string map)
    circuit_gates: 11177.74 KB (59453/65034)
    object_overhead: 0.25 KB
    Total Ansatz Object: 10.916 MB
    Memory Efficiency: 91.4% (useful data vs total)
    Memory Hotspot: circuit_gates (100.0% of object)
  Memory/Clique: No cliques available for analysis
  → Net Memory Delta: CPU +19.32 MB, GPU +2.00 MB [circuit vs delta: 0.0 MB diff]
Processing operator 7/645 - CPU: 389.12 MB, GPU: 38.8165 GB free
Operator 7: 11136 Pauli terms -> 2871 cliques (efficiency: 25.8%) - Memory: 32.58 MB
  STL Containers: PauliMap=27.18MB, CommOps=14.70MB, Cliques=0.22MB
  Container Overhead: PauliMap=1.0x, CommOps=19.2x
  Container Details: CommOps size=11136, capacity=214101, PauliMap size=214101, buckets=351061
  Accumulated Data: Coeffs=1.19MB, ZMasks=1.19MB, Observables=0.65MB
  Circuit + Temp Memory: +15.07 MB, Persistent Circuit: +15.07 MB, Cleaned Temp: 0.00 MB
  Cumulative Circuit Memory: 144.12 MB (Total circuits: 0)
  Complete Ansatz Memory Breakdown:
    shared_ptr overhead: 0.19 KB
    theta (params): 0.02 KB (0/0)
    parameterized_gates: 0.02 KB (0/0)
    gate_parameter_pointers: 0.02 KB (nested structure)
    gate_coefficients: 0.02 KB (estimated)
    excitation_index_map: 0.06 KB (string map)
    circuit_gates: 10486.46 KB (58735/61012)
    object_overhead: 0.25 KB
    Total Ansatz Object: 10.241 MB
    Memory Efficiency: 96.3% (useful data vs total)
    Memory Hotspot: circuit_gates (100.0% of object)
  Memory/Clique: No cliques available for analysis
  → Net Memory Delta: CPU +15.07 MB, GPU +4.00 MB [circuit vs delta: 0.0 MB diff]
Processing operator 8/645 - CPU: 404.19 MB, GPU: 38.8126 GB free
Operator 8: 11136 Pauli terms -> 2935 cliques (efficiency: 26.4%) - Memory: 32.72 MB
  STL Containers: PauliMap=27.28MB, CommOps=14.76MB, Cliques=0.22MB
  Container Overhead: PauliMap=1.0x, CommOps=19.3x
  Container Details: CommOps size=11136, capacity=214997, PauliMap size=214997, buckets=351061
  Accumulated Data: Coeffs=1.36MB, ZMasks=1.36MB, Observables=0.74MB
  Circuit + Temp Memory: +13.29 MB, Persistent Circuit: +13.29 MB, Cleaned Temp: 0.00 MB
  Cumulative Circuit Memory: 157.40 MB (Total circuits: 0)
  Complete Ansatz Memory Breakdown:
    shared_ptr overhead: 0.19 KB
    theta (params): 0.02 KB (0/0)
    parameterized_gates: 0.02 KB (0/0)
    gate_parameter_pointers: 0.02 KB (nested structure)
    gate_coefficients: 0.02 KB (estimated)
    excitation_index_map: 0.06 KB (string map)
    circuit_gates: 13071.46 KB (60629/76052)
    object_overhead: 0.25 KB
    Total Ansatz Object: 12.766 MB
    Memory Efficiency: 79.7% (useful data vs total)
    Memory Hotspot: circuit_gates (100.0% of object)
  Memory/Clique: No cliques available for analysis
  → Net Memory Delta: CPU +14.06 MB, GPU +2.00 MB [circuit vs delta: 0.8 MB diff]
Processing operator 9/645 - CPU: 418.25 MB, GPU: 38.8107 GB free
Operator 9: 11136 Pauli terms -> 2988 cliques (efficiency: 26.8%) - Memory: 32.82 MB
  STL Containers: PauliMap=27.36MB, CommOps=14.81MB, Cliques=0.22MB
  Container Overhead: PauliMap=1.0x, CommOps=19.4x
  Container Details: CommOps size=11136, capacity=215669, PauliMap size=215669, buckets=351061
  Accumulated Data: Coeffs=1.53MB, ZMasks=1.53MB, Observables=0.83MB
  Circuit + Temp Memory: +18.61 MB, Persistent Circuit: +18.61 MB, Cleaned Temp: 0.00 MB
  Cumulative Circuit Memory: 176.02 MB (Total circuits: 0)
  Complete Ansatz Memory Breakdown:
    shared_ptr overhead: 0.19 KB
    theta (params): 0.02 KB (0/0)
    parameterized_gates: 0.02 KB (0/0)
    gate_parameter_pointers: 0.02 KB (nested structure)
    gate_coefficients: 0.02 KB (estimated)
    excitation_index_map: 0.06 KB (string map)
    circuit_gates: 12903.37 KB (61566/75074)
    object_overhead: 0.25 KB
    Total Ansatz Object: 12.602 MB
    Memory Efficiency: 82.0% (useful data vs total)
    Memory Hotspot: circuit_gates (100.0% of object)
  Memory/Clique: No cliques available for analysis
  → Net Memory Delta: CPU +19.37 MB, GPU +4.00 MB [circuit vs delta: 0.8 MB diff]

--- SUMMARY: Operators 0-9 ---
  Batch Memory Growth: +181.72 MB
  Pauli Terms Generated: 109608
  Commuting Groups: 30026
  Average Efficiency: 27.5%
  Cumulative Memory: 437.62 MB
  Average Memory/Operator: 18.17 MB
  Theoretical Memory/Op: 0.62 MB (bloat factor: 29.4x)
  Memory Growth Rate: 18.2 MB/op
  Memory Bloat Factor: 29.4x
  System Memory Pressure: 10.0%
--- END SUMMARY ---

Processing operator 10/645 - CPU: 437.62 MB, GPU: 38.8068 GB free
Operator 10: 11136 Pauli terms -> 3049 cliques (efficiency: 27.4%) - Memory: 32.71 MB
  STL Containers: PauliMap=27.26MB, CommOps=14.75MB, Cliques=0.22MB
  Container Overhead: PauliMap=1.0x, CommOps=19.3x
  Container Details: CommOps size=11136, capacity=214797, PauliMap size=214797, buckets=351061
  Accumulated Data: Coeffs=1.70MB, ZMasks=1.70MB, Observables=0.92MB
  Circuit + Temp Memory: +20.57 MB, Persistent Circuit: +20.57 MB, Cleaned Temp: 0.00 MB
  Cumulative Circuit Memory: 196.58 MB (Total circuits: 0)
  Complete Ansatz Memory Breakdown:
    shared_ptr overhead: 0.19 KB
    theta (params): 0.02 KB (0/0)
    parameterized_gates: 0.02 KB (0/0)
    gate_parameter_pointers: 0.02 KB (nested structure)
    gate_coefficients: 0.02 KB (estimated)
    excitation_index_map: 0.06 KB (string map)
    circuit_gates: 17202.99 KB (62561/100090)
    object_overhead: 0.25 KB
    Total Ansatz Object: 16.800 MB
    Memory Efficiency: 62.5% (useful data vs total)
    Memory Hotspot: circuit_gates (100.0% of object)
  Memory/Clique: No cliques available for analysis
  → Net Memory Delta: CPU +20.57 MB, GPU +2.00 MB [circuit vs delta: 0.0 MB diff]
Processing operator 11/645 - CPU: 458.18 MB, GPU: 38.8048 GB free
Operator 11: 9384 Pauli terms -> 3047 cliques (efficiency: 32.5%) - Memory: 34.05 MB
  STL Containers: PauliMap=28.46MB, CommOps=15.47MB, Cliques=0.21MB
  Container Overhead: PauliMap=1.0x, CommOps=24.0x
  Container Details: CommOps size=9384, capacity=225248, PauliMap size=225248, buckets=351061
  Accumulated Data: Coeffs=1.58MB, ZMasks=1.58MB, Observables=1.01MB
  Circuit + Temp Memory: +18.29 MB, Persistent Circuit: +18.29 MB, Cleaned Temp: 0.00 MB
  Cumulative Circuit Memory: 214.87 MB (Total circuits: 0)
  Complete Ansatz Memory Breakdown:
    shared_ptr overhead: 0.19 KB
    theta (params): 0.02 KB (0/0)
    parameterized_gates: 0.02 KB (0/0)
    gate_parameter_pointers: 0.02 KB (nested structure)
    gate_coefficients: 0.02 KB (estimated)
    excitation_index_map: 0.06 KB (string map)
    circuit_gates: 14379.09 KB (64361/83660)
    object_overhead: 0.25 KB
    Total Ansatz Object: 14.043 MB
    Memory Efficiency: 76.9% (useful data vs total)
    Memory Hotspot: circuit_gates (100.0% of object)
  Memory/Clique: No cliques available for analysis
  → Net Memory Delta: CPU +18.29 MB, GPU +4.00 MB [circuit vs delta: 0.0 MB diff]
Processing operator 12/645 - CPU: 476.47 MB, GPU: 38.8009 GB free
Operator 12: 11136 Pauli terms -> 2913 cliques (efficiency: 26.2%) - Memory: 32.80 MB
  STL Containers: PauliMap=27.35MB, CommOps=14.80MB, Cliques=0.22MB
  Container Overhead: PauliMap=1.0x, CommOps=19.4x
  Container Details: CommOps size=11136, capacity=215573, PauliMap size=215573, buckets=351061
  Accumulated Data: Coeffs=2.04MB, ZMasks=2.04MB, Observables=1.10MB
  Circuit + Temp Memory: +23.31 MB, Persistent Circuit: +23.31 MB, Cleaned Temp: 0.00 MB
  Cumulative Circuit Memory: 238.18 MB (Total circuits: 0)
  Complete Ansatz Memory Breakdown:
    shared_ptr overhead: 0.19 KB
    theta (params): 0.02 KB (0/0)
    parameterized_gates: 0.02 KB (0/0)
    gate_parameter_pointers: 0.02 KB (nested structure)
    gate_coefficients: 0.02 KB (estimated)
    excitation_index_map: 0.06 KB (string map)
    circuit_gates: 18242.84 KB (59017/106140)
    object_overhead: 0.25 KB
    Total Ansatz Object: 17.816 MB
    Memory Efficiency: 55.6% (useful data vs total)
    Memory Hotspot: circuit_gates (100.0% of object)
  Memory/Clique: No cliques available for analysis
  → Net Memory Delta: CPU +23.31 MB, GPU +2.00 MB [circuit vs delta: 0.0 MB diff]
Processing operator 13/645 - CPU: 499.78 MB, GPU: 38.7990 GB free
Operator 13: 11136 Pauli terms -> 2905 cliques (efficiency: 26.1%) - Memory: 32.72 MB
  STL Containers: PauliMap=27.29MB, CommOps=14.76MB, Cliques=0.22MB
  Container Overhead: PauliMap=1.0x, CommOps=19.3x
  Container Details: CommOps size=11136, capacity=215021, PauliMap size=215021, buckets=351061
  Accumulated Data: Coeffs=2.21MB, ZMasks=2.21MB, Observables=1.19MB
  Circuit + Temp Memory: +7.77 MB, Persistent Circuit: +7.77 MB, Cleaned Temp: 0.00 MB
  Cumulative Circuit Memory: 245.95 MB (Total circuits: 0)
  Complete Ansatz Memory Breakdown:
    shared_ptr overhead: 0.19 KB
    theta (params): 0.02 KB (0/0)
    parameterized_gates: 0.02 KB (0/0)
    gate_parameter_pointers: 0.02 KB (nested structure)
    gate_coefficients: 0.02 KB (estimated)
    excitation_index_map: 0.06 KB (string map)
    circuit_gates: 10403.96 KB (59253/60532)
    object_overhead: 0.25 KB
    Total Ansatz Object: 10.161 MB
    Memory Efficiency: 97.9% (useful data vs total)
    Memory Hotspot: circuit_gates (100.0% of object)
  Memory/Clique: No cliques available for analysis
  → Net Memory Delta: CPU +7.77 MB, GPU +4.00 MB [circuit vs delta: 0.0 MB diff]
Processing operator 14/645 - CPU: 507.55 MB, GPU: 38.7950 GB free
Operator 14: 11136 Pauli terms -> 2941 cliques (efficiency: 26.4%) - Memory: 32.87 MB
  STL Containers: PauliMap=27.41MB, CommOps=14.84MB, Cliques=0.22MB
  Container Overhead: PauliMap=1.0x, CommOps=19.4x
  Container Details: CommOps size=11136, capacity=216065, PauliMap size=216065, buckets=351061
  Accumulated Data: Coeffs=2.38MB, ZMasks=2.38MB, Observables=1.28MB
  Circuit + Temp Memory: +25.33 MB, Persistent Circuit: +25.33 MB, Cleaned Temp: 0.00 MB
  Cumulative Circuit Memory: 271.28 MB (Total circuits: 0)
  Complete Ansatz Memory Breakdown:
    shared_ptr overhead: 0.19 KB
    theta (params): 0.02 KB (0/0)
    parameterized_gates: 0.02 KB (0/0)
    gate_parameter_pointers: 0.02 KB (nested structure)
    gate_coefficients: 0.02 KB (estimated)
    excitation_index_map: 0.06 KB (string map)
    circuit_gates: 17813.49 KB (60169/103642)
    object_overhead: 0.25 KB
    Total Ansatz Object: 17.397 MB
    Memory Efficiency: 58.1% (useful data vs total)
    Memory Hotspot: circuit_gates (100.0% of object)
  Memory/Clique: No cliques available for analysis
  → Net Memory Delta: CPU +26.10 MB, GPU +2.00 MB [circuit vs delta: 0.8 MB diff]
Processing operator 15/645 - CPU: 533.66 MB, GPU: 38.7931 GB free
Operator 15: 11136 Pauli terms -> 2970 cliques (efficiency: 26.7%) - Memory: 32.98 MB
  STL Containers: PauliMap=27.49MB, CommOps=14.89MB, Cliques=0.22MB
  Container Overhead: PauliMap=1.0x, CommOps=19.5x
  Container Details: CommOps size=11136, capacity=216801, PauliMap size=216801, buckets=351061
  Accumulated Data: Coeffs=2.55MB, ZMasks=2.55MB, Observables=1.37MB
  Circuit + Temp Memory: +19.06 MB, Persistent Circuit: +19.06 MB, Cleaned Temp: 0.00 MB
  Cumulative Circuit Memory: 290.34 MB (Total circuits: 0)
  Complete Ansatz Memory Breakdown:
    shared_ptr overhead: 0.19 KB
    theta (params): 0.02 KB (0/0)
    parameterized_gates: 0.02 KB (0/0)
    gate_parameter_pointers: 0.02 KB (nested structure)
    gate_coefficients: 0.02 KB (estimated)
    excitation_index_map: 0.06 KB (string map)
    circuit_gates: 15997.80 KB (61174/93078)
    object_overhead: 0.25 KB
    Total Ansatz Object: 15.623 MB
    Memory Efficiency: 65.7% (useful data vs total)
    Memory Hotspot: circuit_gates (100.0% of object)
  Memory/Clique: No cliques available for analysis
  → Net Memory Delta: CPU +19.06 MB, GPU +4.00 MB [circuit vs delta: 0.0 MB diff]
Processing operator 16/645 - CPU: 552.72 MB, GPU: 38.7892 GB free
Operator 16: 11136 Pauli terms -> 3082 cliques (efficiency: 27.7%) - Memory: 32.83 MB
  STL Containers: PauliMap=27.36MB, CommOps=14.81MB, Cliques=0.23MB
  Container Overhead: PauliMap=1.0x, CommOps=19.4x
  Container Details: CommOps size=11136, capacity=215629, PauliMap size=215629, buckets=351061
  Accumulated Data: Coeffs=2.72MB, ZMasks=2.72MB, Observables=1.46MB
  Circuit + Temp Memory: +14.30 MB, Persistent Circuit: +14.30 MB, Cleaned Temp: 0.00 MB
  Cumulative Circuit Memory: 304.64 MB (Total circuits: 0)
  Complete Ansatz Memory Breakdown:
    shared_ptr overhead: 0.19 KB
    theta (params): 0.02 KB (0/0)
    parameterized_gates: 0.02 KB (0/0)
    gate_parameter_pointers: 0.02 KB (nested structure)
    gate_coefficients: 0.02 KB (estimated)
    excitation_index_map: 0.06 KB (string map)
    circuit_gates: 15705.27 KB (63302/91376)
    object_overhead: 0.25 KB
    Total Ansatz Object: 15.338 MB
    Memory Efficiency: 69.3% (useful data vs total)
    Memory Hotspot: circuit_gates (100.0% of object)
  Memory/Clique: No cliques available for analysis
  → Net Memory Delta: CPU +14.30 MB, GPU +2.00 MB [circuit vs delta: 0.0 MB diff]
Processing operator 17/645 - CPU: 567.02 MB, GPU: 38.7872 GB free
Operator 17: 9384 Pauli terms -> 3050 cliques (efficiency: 32.5%) - Memory: 34.22 MB
  STL Containers: PauliMap=28.59MB, CommOps=15.55MB, Cliques=0.21MB
  Container Overhead: PauliMap=1.0x, CommOps=24.1x
  Container Details: CommOps size=9384, capacity=226440, PauliMap size=226440, buckets=351061
  Accumulated Data: Coeffs=2.43MB, ZMasks=2.43MB, Observables=1.55MB
  Circuit + Temp Memory: +20.43 MB, Persistent Circuit: +17.82 MB, Cleaned Temp: 2.62 MB
  Cumulative Circuit Memory: 322.46 MB (Total circuits: 0)
  Complete Ansatz Memory Breakdown:
    shared_ptr overhead: 0.19 KB
    theta (params): 0.02 KB (0/0)
    parameterized_gates: 0.02 KB (0/0)
    gate_parameter_pointers: 0.02 KB (nested structure)
    gate_coefficients: 0.02 KB (estimated)
    excitation_index_map: 0.06 KB (string map)
    circuit_gates: 15915.99 KB (63952/92602)
    object_overhead: 0.25 KB
    Total Ansatz Object: 15.544 MB
    Memory Efficiency: 69.1% (useful data vs total)
    Memory Hotspot: circuit_gates (100.0% of object)
  Memory/Clique: No cliques available for analysis
  → Net Memory Delta: CPU +20.59 MB, GPU +4.00 MB [circuit vs delta: 2.8 MB diff]
Processing operator 18/645 - CPU: 587.61 MB, GPU: 38.7833 GB free
Operator 18: 9384 Pauli terms -> 2568 cliques (efficiency: 27.4%) - Memory: 34.03 MB
  STL Containers: PauliMap=28.50MB, CommOps=15.49MB, Cliques=0.19MB
  Container Overhead: PauliMap=1.0x, CommOps=24.0x
  Container Details: CommOps size=9384, capacity=225616, PauliMap size=225616, buckets=351061
  Accumulated Data: Coeffs=2.58MB, ZMasks=2.58MB, Observables=1.65MB
  Circuit + Temp Memory: +15.72 MB, Persistent Circuit: +15.72 MB, Cleaned Temp: 0.00 MB
  Cumulative Circuit Memory: 338.18 MB (Total circuits: 0)
  Complete Ansatz Memory Breakdown:
    shared_ptr overhead: 0.19 KB
    theta (params): 0.02 KB (0/0)
    parameterized_gates: 0.02 KB (0/0)
    gate_parameter_pointers: 0.02 KB (nested structure)
    gate_coefficients: 0.02 KB (estimated)
    excitation_index_map: 0.06 KB (string map)
    circuit_gates: 15246.71 KB (54492/88708)
    object_overhead: 0.25 KB
    Total Ansatz Object: 14.890 MB
    Memory Efficiency: 61.4% (useful data vs total)
    Memory Hotspot: circuit_gates (100.0% of object)
  Memory/Clique: No cliques available for analysis
  → Net Memory Delta: CPU +16.22 MB, GPU +2.00 MB [circuit vs delta: 0.5 MB diff]
Processing operator 19/645 - CPU: 603.83 MB, GPU: 38.7814 GB free
Operator 19: 9384 Pauli terms -> 2568 cliques (efficiency: 27.4%) - Memory: 33.94 MB
  STL Containers: PauliMap=28.43MB, CommOps=15.45MB, Cliques=0.19MB
  Container Overhead: PauliMap=1.0x, CommOps=24.0x
  Container Details: CommOps size=9384, capacity=225000, PauliMap size=225000, buckets=351061
  Accumulated Data: Coeffs=2.72MB, ZMasks=2.72MB, Observables=1.73MB
  Circuit + Temp Memory: +14.00 MB, Persistent Circuit: +14.00 MB, Cleaned Temp: 0.00 MB
  Cumulative Circuit Memory: 352.18 MB (Total circuits: 0)
  Complete Ansatz Memory Breakdown:
    shared_ptr overhead: 0.19 KB
    theta (params): 0.02 KB (0/0)
    parameterized_gates: 0.02 KB (0/0)
    gate_parameter_pointers: 0.02 KB (nested structure)
    gate_coefficients: 0.02 KB (estimated)
    excitation_index_map: 0.06 KB (string map)
    circuit_gates: 10032.71 KB (54658/58372)
    object_overhead: 0.25 KB
    Total Ansatz Object: 9.798 MB
    Memory Efficiency: 93.6% (useful data vs total)
    Memory Hotspot: circuit_gates (100.0% of object)
  Memory/Clique: No cliques available for analysis
  → Net Memory Delta: CPU +14.00 MB, GPU +2.00 MB [circuit vs delta: 0.0 MB diff]

--- SUMMARY: Operators 10-19 ---
  Batch Memory Growth: +180.21 MB
  Pauli Terms Generated: 104352
  Commuting Groups: 29093
  Average Efficiency: 28.0%
  Cumulative Memory: 617.83 MB
  Average Memory/Operator: 18.02 MB
  Theoretical Memory/Op: 0.59 MB (bloat factor: 30.3x)
  Memory Growth Rate: 18.0 MB/op
  Memory Bloat Factor: 30.3x
  System Memory Pressure: 10.0%
--- END SUMMARY ---

Processing operator 20/645 - CPU: 617.83 MB, GPU: 38.7794 GB free
Operator 20: 9384 Pauli terms -> 2614 cliques (efficiency: 27.9%) - Memory: 34.11 MB
  STL Containers: PauliMap=28.56MB, CommOps=15.53MB, Cliques=0.19MB
  Container Overhead: PauliMap=1.0x, CommOps=24.1x
  Container Details: CommOps size=9384, capacity=226152, PauliMap size=226152, buckets=351061
  Accumulated Data: Coeffs=2.86MB, ZMasks=2.86MB, Observables=1.80MB
  Circuit + Temp Memory: +14.75 MB, Persistent Circuit: +14.75 MB, Cleaned Temp: 0.00 MB
  Cumulative Circuit Memory: 366.93 MB (Total circuits: 0)
  Complete Ansatz Memory Breakdown:
    shared_ptr overhead: 0.19 KB
    theta (params): 0.02 KB (0/0)
    parameterized_gates: 0.02 KB (0/0)
    gate_parameter_pointers: 0.02 KB (nested structure)
    gate_coefficients: 0.02 KB (estimated)
    excitation_index_map: 0.06 KB (string map)
    circuit_gates: 9896.59 KB (55476/57580)
    object_overhead: 0.25 KB
    Total Ansatz Object: 9.665 MB
    Memory Efficiency: 96.3% (useful data vs total)
    Memory Hotspot: circuit_gates (100.0% of object)
  Memory/Clique: No cliques available for analysis
  → Net Memory Delta: CPU +17.27 MB, GPU +4.00 MB [circuit vs delta: 2.5 MB diff]
Processing operator 21/645 - CPU: 635.09 MB, GPU: 38.7755 GB free
Operator 21: 9384 Pauli terms -> 2636 cliques (efficiency: 28.1%) - Memory: 34.23 MB
  STL Containers: PauliMap=28.65MB, CommOps=15.58MB, Cliques=0.19MB
  Container Overhead: PauliMap=1.0x, CommOps=24.2x
  Container Details: CommOps size=9384, capacity=226964, PauliMap size=226964, buckets=351061
  Accumulated Data: Coeffs=3.01MB, ZMasks=3.01MB, Observables=1.88MB
  Circuit + Temp Memory: +16.79 MB, Persistent Circuit: +16.79 MB, Cleaned Temp: 0.00 MB
  Cumulative Circuit Memory: 383.72 MB (Total circuits: 0)
  Complete Ansatz Memory Breakdown:
    shared_ptr overhead: 0.19 KB
    theta (params): 0.02 KB (0/0)
    parameterized_gates: 0.02 KB (0/0)
    gate_parameter_pointers: 0.02 KB (nested structure)
    gate_coefficients: 0.02 KB (estimated)
    excitation_index_map: 0.06 KB (string map)
    circuit_gates: 11397.40 KB (55326/66312)
    object_overhead: 0.25 KB
    Total Ansatz Object: 11.131 MB
    Memory Efficiency: 83.4% (useful data vs total)
    Memory Hotspot: circuit_gates (100.0% of object)
  Memory/Clique: No cliques available for analysis
  → Net Memory Delta: CPU +16.79 MB, GPU +2.00 MB [circuit vs delta: 0.0 MB diff]
Processing operator 22/645 - CPU: 651.89 MB, GPU: 38.7736 GB free
Operator 22: 9384 Pauli terms -> 2731 cliques (efficiency: 29.1%) - Memory: 34.08 MB
  STL Containers: PauliMap=28.52MB, CommOps=15.50MB, Cliques=0.20MB
  Container Overhead: PauliMap=1.0x, CommOps=24.1x
  Container Details: CommOps size=9384, capacity=225784, PauliMap size=225784, buckets=351061
  Accumulated Data: Coeffs=3.15MB, ZMasks=3.15MB, Observables=1.96MB
  Circuit + Temp Memory: +22.09 MB, Persistent Circuit: +22.09 MB, Cleaned Temp: 0.00 MB
  Cumulative Circuit Memory: 405.81 MB (Total circuits: 0)
  Complete Ansatz Memory Breakdown:
    shared_ptr overhead: 0.19 KB
    theta (params): 0.02 KB (0/0)
    parameterized_gates: 0.02 KB (0/0)
    gate_parameter_pointers: 0.02 KB (nested structure)
    gate_coefficients: 0.02 KB (estimated)
    excitation_index_map: 0.06 KB (string map)
    circuit_gates: 15122.62 KB (57423/87986)
    object_overhead: 0.25 KB
    Total Ansatz Object: 14.769 MB
    Memory Efficiency: 65.3% (useful data vs total)
    Memory Hotspot: circuit_gates (100.0% of object)
  Memory/Clique: No cliques available for analysis
  → Net Memory Delta: CPU +22.09 MB, GPU +2.00 MB [circuit vs delta: 0.0 MB diff]
Processing operator 23/645 - CPU: 673.97 MB, GPU: 38.7716 GB free
Operator 23: 3912 Pauli terms -> 1117 cliques (efficiency: 28.6%) - Memory: 33.88 MB
  STL Containers: PauliMap=28.99MB, CommOps=15.78MB, Cliques=0.08MB
  Container Overhead: PauliMap=1.0x, CommOps=58.8x
  Container Details: CommOps size=3912, capacity=229873, PauliMap size=229873, buckets=351061
  Accumulated Data: Coeffs=1.37MB, ZMasks=1.37MB, Observables=2.05MB
  Circuit + Temp Memory: +4.00 MB, Persistent Circuit: +3.76 MB, Cleaned Temp: 0.24 MB
  Cumulative Circuit Memory: 409.57 MB (Total circuits: 0)
  Complete Ansatz Memory Breakdown:
    shared_ptr overhead: 0.19 KB
    theta (params): 0.02 KB (0/0)
    parameterized_gates: 0.02 KB (0/0)
    gate_parameter_pointers: 0.02 KB (nested structure)
    gate_coefficients: 0.02 KB (estimated)
    excitation_index_map: 0.06 KB (string map)
    circuit_gates: 6912.15 KB (22355/40216)
    object_overhead: 0.25 KB
    Total Ansatz Object: 6.751 MB
    Memory Efficiency: 55.6% (useful data vs total)
    Memory Hotspot: circuit_gates (100.0% of object)
  Memory/Clique: No cliques available for analysis
  → Net Memory Delta: CPU +4.00 MB, GPU +2.00 MB [circuit vs delta: 0.2 MB diff]
Processing operator 24/645 - CPU: 677.97 MB, GPU: 38.7697 GB free
Operator 24: 11136 Pauli terms -> 2998 cliques (efficiency: 26.9%) - Memory: 32.67 MB
  STL Containers: PauliMap=27.24MB, CommOps=14.73MB, Cliques=0.22MB
  Container Overhead: PauliMap=1.0x, CommOps=19.3x
  Container Details: CommOps size=11136, capacity=214581, PauliMap size=214581, buckets=351061
  Accumulated Data: Coeffs=4.08MB, ZMasks=4.08MB, Observables=2.08MB
  Circuit + Temp Memory: +28.61 MB, Persistent Circuit: +28.61 MB, Cleaned Temp: 0.00 MB
  Cumulative Circuit Memory: 438.17 MB (Total circuits: 0)
  Complete Ansatz Memory Breakdown:
    shared_ptr overhead: 0.19 KB
    theta (params): 0.02 KB (0/0)
    parameterized_gates: 0.02 KB (0/0)
    gate_parameter_pointers: 0.02 KB (nested structure)
    gate_coefficients: 0.02 KB (estimated)
    excitation_index_map: 0.06 KB (string map)
    circuit_gates: 19943.02 KB (60120/116032)
    object_overhead: 0.25 KB
    Total Ansatz Object: 19.476 MB
    Memory Efficiency: 51.8% (useful data vs total)
    Memory Hotspot: circuit_gates (100.0% of object)
  Memory/Clique: No cliques available for analysis
  → Net Memory Delta: CPU +30.61 MB, GPU +2.00 MB [circuit vs delta: 2.0 MB diff]
Processing operator 25/645 - CPU: 708.58 MB, GPU: 38.7677 GB free
Operator 25: 11136 Pauli terms -> 2865 cliques (efficiency: 25.7%) - Memory: 32.60 MB
  STL Containers: PauliMap=27.20MB, CommOps=14.71MB, Cliques=0.22MB
  Container Overhead: PauliMap=1.0x, CommOps=19.2x
  Container Details: CommOps size=11136, capacity=214285, PauliMap size=214285, buckets=351061
  Accumulated Data: Coeffs=4.25MB, ZMasks=4.25MB, Observables=2.17MB
  Circuit + Temp Memory: +10.47 MB, Persistent Circuit: +10.47 MB, Cleaned Temp: 0.00 MB
  Cumulative Circuit Memory: 448.64 MB (Total circuits: 0)
  Complete Ansatz Memory Breakdown:
    shared_ptr overhead: 0.19 KB
    theta (params): 0.02 KB (0/0)
    parameterized_gates: 0.02 KB (0/0)
    gate_parameter_pointers: 0.02 KB (nested structure)
    gate_coefficients: 0.02 KB (estimated)
    excitation_index_map: 0.06 KB (string map)
    circuit_gates: 19121.80 KB (58589/111254)
    object_overhead: 0.25 KB
    Total Ansatz Object: 18.674 MB
    Memory Efficiency: 52.7% (useful data vs total)
    Memory Hotspot: circuit_gates (100.0% of object)
  Memory/Clique: No cliques available for analysis
  → Net Memory Delta: CPU +10.47 MB, GPU +4.00 MB [circuit vs delta: 0.0 MB diff]
Processing operator 26/645 - CPU: 719.05 MB, GPU: 38.7638 GB free
Operator 26: 11136 Pauli terms -> 2936 cliques (efficiency: 26.4%) - Memory: 32.76 MB
  STL Containers: PauliMap=27.31MB, CommOps=14.78MB, Cliques=0.22MB
  Container Overhead: PauliMap=1.0x, CommOps=19.3x
  Container Details: CommOps size=11136, capacity=215253, PauliMap size=215253, buckets=351061
  Accumulated Data: Coeffs=4.42MB, ZMasks=4.42MB, Observables=2.26MB
  Circuit + Temp Memory: +11.54 MB, Persistent Circuit: +11.54 MB, Cleaned Temp: 0.00 MB
  Cumulative Circuit Memory: 460.18 MB (Total circuits: 0)
  Complete Ansatz Memory Breakdown:
    shared_ptr overhead: 0.19 KB
    theta (params): 0.02 KB (0/0)
    parameterized_gates: 0.02 KB (0/0)
    gate_parameter_pointers: 0.02 KB (nested structure)
    gate_coefficients: 0.02 KB (estimated)
    excitation_index_map: 0.06 KB (string map)
    circuit_gates: 14786.77 KB (60084/86032)
    object_overhead: 0.25 KB
    Total Ansatz Object: 14.441 MB
    Memory Efficiency: 69.8% (useful data vs total)
    Memory Hotspot: circuit_gates (100.0% of object)
  Memory/Clique: No cliques available for analysis
  → Net Memory Delta: CPU +11.54 MB, GPU +2.00 MB [circuit vs delta: 0.0 MB diff]
Processing operator 27/645 - CPU: 730.59 MB, GPU: 38.7618 GB free
Operator 27: 11136 Pauli terms -> 2984 cliques (efficiency: 26.8%) - Memory: 32.87 MB
  STL Containers: PauliMap=27.40MB, CommOps=14.83MB, Cliques=0.22MB
  Container Overhead: PauliMap=1.0x, CommOps=19.4x
  Container Details: CommOps size=11136, capacity=216005, PauliMap size=216005, buckets=351061
  Accumulated Data: Coeffs=4.59MB, ZMasks=4.59MB, Observables=2.35MB
  Circuit + Temp Memory: +19.27 MB, Persistent Circuit: +19.27 MB, Cleaned Temp: 0.00 MB
  Cumulative Circuit Memory: 479.45 MB (Total circuits: 0)
  Complete Ansatz Memory Breakdown:
    shared_ptr overhead: 0.19 KB
    theta (params): 0.02 KB (0/0)
    parameterized_gates: 0.02 KB (0/0)
    gate_parameter_pointers: 0.02 KB (nested structure)
    gate_coefficients: 0.02 KB (estimated)
    excitation_index_map: 0.06 KB (string map)
    circuit_gates: 12960.77 KB (61064/75408)
    object_overhead: 0.25 KB
    Total Ansatz Object: 12.658 MB
    Memory Efficiency: 81.0% (useful data vs total)
    Memory Hotspot: circuit_gates (100.0% of object)
  Memory/Clique: No cliques available for analysis
  → Net Memory Delta: CPU +21.51 MB, GPU +4.00 MB [circuit vs delta: 2.2 MB diff]
Processing operator 28/645 - CPU: 752.10 MB, GPU: 38.7579 GB free
Operator 28: 11136 Pauli terms -> 3063 cliques (efficiency: 27.5%) - Memory: 32.71 MB
  STL Containers: PauliMap=27.26MB, CommOps=14.75MB, Cliques=0.23MB
  Container Overhead: PauliMap=1.0x, CommOps=19.3x
  Container Details: CommOps size=11136, capacity=214813, PauliMap size=214813, buckets=351061
  Accumulated Data: Coeffs=4.76MB, ZMasks=4.76MB, Observables=2.44MB
  Circuit + Temp Memory: +15.09 MB, Persistent Circuit: +15.17 MB, Cleaned Temp: -0.08 MB
  Cumulative Circuit Memory: 494.62 MB (Total circuits: 0)
  Complete Ansatz Memory Breakdown:
    shared_ptr overhead: 0.19 KB
    theta (params): 0.02 KB (0/0)
    parameterized_gates: 0.02 KB (0/0)
    gate_parameter_pointers: 0.02 KB (nested structure)
    gate_coefficients: 0.02 KB (estimated)
    excitation_index_map: 0.06 KB (string map)
    circuit_gates: 11750.43 KB (62661/68366)
    object_overhead: 0.25 KB
    Total Ansatz Object: 11.476 MB
    Memory Efficiency: 91.7% (useful data vs total)
    Memory Hotspot: circuit_gates (100.0% of object)
  Memory/Clique: No cliques available for analysis
  → Net Memory Delta: CPU +15.36 MB, GPU +2.00 MB [circuit vs delta: 0.2 MB diff]
Processing operator 29/645 - CPU: 767.46 MB, GPU: 38.7560 GB free
Operator 29: 9384 Pauli terms -> 2983 cliques (efficiency: 31.8%) - Memory: 34.08 MB
  STL Containers: PauliMap=28.49MB, CommOps=15.49MB, Cliques=0.21MB
  Container Overhead: PauliMap=1.0x, CommOps=24.0x
  Container Details: CommOps size=9384, capacity=225528, PauliMap size=225528, buckets=351061
  Accumulated Data: Coeffs=4.15MB, ZMasks=4.15MB, Observables=2.53MB
  Circuit + Temp Memory: +25.14 MB, Persistent Circuit: +25.14 MB, Cleaned Temp: 0.00 MB
  Cumulative Circuit Memory: 519.77 MB (Total circuits: 0)
  Complete Ansatz Memory Breakdown:
    shared_ptr overhead: 0.19 KB
    theta (params): 0.02 KB (0/0)
    parameterized_gates: 0.02 KB (0/0)
    gate_parameter_pointers: 0.02 KB (nested structure)
    gate_coefficients: 0.02 KB (estimated)
    excitation_index_map: 0.06 KB (string map)
    circuit_gates: 18482.43 KB (62547/107534)
    object_overhead: 0.25 KB
    Total Ansatz Object: 18.050 MB
    Memory Efficiency: 58.2% (useful data vs total)
    Memory Hotspot: circuit_gates (100.0% of object)
  Memory/Clique: No cliques available for analysis
  → Net Memory Delta: CPU +25.56 MB, GPU +4.00 MB [circuit vs delta: 0.4 MB diff]

--- SUMMARY: Operators 20-29 ---
  Batch Memory Growth: +175.19 MB
  Pauli Terms Generated: 97128
  Commuting Groups: 26927
  Average Efficiency: 27.9%
  Cumulative Memory: 793.02 MB
  Average Memory/Operator: 17.52 MB
  Theoretical Memory/Op: 0.55 MB (bloat factor: 31.8x)
  Memory Growth Rate: 17.5 MB/op
  Memory Bloat Factor: 31.8x
  System Memory Pressure: 10.1%
--- END SUMMARY ---

Processing operator 30/645 - CPU: 793.02 MB, GPU: 38.7521 GB free
Operator 30: 76160 Pauli terms -> 25523 cliques (efficiency: 33.5%) - Memory: 117.60 MB
  STL Containers: PauliMap=94.84MB, CommOps=50.28MB, Cliques=1.75MB
  Container Overhead: PauliMap=1.0x, CommOps=9.6x
  Container Details: CommOps size=76160, capacity=732287, PauliMap size=732287, buckets=1447153
  Accumulated Data: Coeffs=34.86MB, ZMasks=34.86MB, Observables=2.63MB
  Circuit + Temp Memory: +165.38 MB, Persistent Circuit: +158.75 MB, Cleaned Temp: 6.62 MB
  Cumulative Circuit Memory: 678.52 MB (Total circuits: 0)
  Complete Ansatz Memory Breakdown:
    shared_ptr overhead: 0.19 KB
    theta (params): 0.02 KB (0/0)
    parameterized_gates: 0.02 KB (0/0)
    gate_parameter_pointers: 0.02 KB (nested structure)
    gate_coefficients: 0.02 KB (estimated)
    excitation_index_map: 0.06 KB (string map)
    circuit_gates: 192007.43 KB (614645/1117134)
    object_overhead: 0.25 KB
    Total Ansatz Object: 187.508 MB
    Memory Efficiency: 55.0% (useful data vs total)
    Memory Hotspot: circuit_gates (100.0% of object)
  Memory/Clique: No cliques available for analysis
  → Net Memory Delta: CPU +216.88 MB, GPU +26.00 MB [circuit vs delta: 58.1 MB diff]
Processing operator 31/645 - CPU: 1009.90 MB, GPU: 38.7267 GB free
Operator 31: 76160 Pauli terms -> 22302 cliques (efficiency: 29.3%) - Memory: 117.14 MB
  STL Containers: PauliMap=94.87MB, CommOps=50.30MB, Cliques=1.60MB
  Container Overhead: PauliMap=1.0x, CommOps=9.6x
  Container Details: CommOps size=76160, capacity=732511, PauliMap size=732511, buckets=1447153
  Accumulated Data: Coeffs=36.03MB, ZMasks=36.03MB, Observables=3.40MB
  Circuit + Temp Memory: +138.14 MB, Persistent Circuit: +131.74 MB, Cleaned Temp: 6.41 MB
  Cumulative Circuit Memory: 810.26 MB (Total circuits: 0)
  Complete Ansatz Memory Breakdown:
    shared_ptr overhead: 0.19 KB
    theta (params): 0.02 KB (0/0)
    parameterized_gates: 0.02 KB (0/0)
    gate_parameter_pointers: 0.02 KB (nested structure)
    gate_coefficients: 0.02 KB (estimated)
    excitation_index_map: 0.06 KB (string map)
    circuit_gates: 135872.71 KB (563820/790532)
    object_overhead: 0.25 KB
    Total Ansatz Object: 132.689 MB
    Memory Efficiency: 71.3% (useful data vs total)
    Memory Hotspot: circuit_gates (100.0% of object)
  Memory/Clique: No cliques available for analysis
  → Net Memory Delta: CPU +149.43 MB, GPU +22.00 MB [circuit vs delta: 17.7 MB diff]
Processing operator 32/645 - CPU: 1159.33 MB, GPU: 38.7052 GB free
Operator 32: 76160 Pauli terms -> 22065 cliques (efficiency: 29.0%) - Memory: 117.38 MB
  STL Containers: PauliMap=95.09MB, CommOps=50.43MB, Cliques=1.59MB
  Container Overhead: PauliMap=1.0x, CommOps=9.6x
  Container Details: CommOps size=76160, capacity=734399, PauliMap size=734399, buckets=1447153
  Accumulated Data: Coeffs=37.19MB, ZMasks=37.19MB, Observables=4.09MB
  Circuit + Temp Memory: +138.86 MB, Persistent Circuit: +132.07 MB, Cleaned Temp: 6.79 MB
  Cumulative Circuit Memory: 942.33 MB (Total circuits: 0)
  Complete Ansatz Memory Breakdown:
    shared_ptr overhead: 0.19 KB
    theta (params): 0.02 KB (0/0)
    parameterized_gates: 0.02 KB (0/0)
    gate_parameter_pointers: 0.02 KB (nested structure)
    gate_coefficients: 0.02 KB (estimated)
    excitation_index_map: 0.06 KB (string map)
    circuit_gates: 135846.24 KB (566045/790378)
    object_overhead: 0.25 KB
    Total Ansatz Object: 132.663 MB
    Memory Efficiency: 71.6% (useful data vs total)
    Memory Hotspot: circuit_gates (100.0% of object)
  Memory/Clique: No cliques available for analysis
  → Net Memory Delta: CPU +149.89 MB, GPU +22.00 MB [circuit vs delta: 17.8 MB diff]
Processing operator 33/645 - CPU: 1309.23 MB, GPU: 38.6837 GB free
Operator 33: 76160 Pauli terms -> 24145 cliques (efficiency: 31.7%) - Memory: 117.42 MB
  STL Containers: PauliMap=94.87MB, CommOps=50.30MB, Cliques=1.69MB
  Container Overhead: PauliMap=1.0x, CommOps=9.6x
  Container Details: CommOps size=76160, capacity=732507, PauliMap size=732507, buckets=1447153
  Accumulated Data: Coeffs=38.35MB, ZMasks=38.35MB, Observables=4.76MB
  Circuit + Temp Memory: +151.20 MB, Persistent Circuit: +144.68 MB, Cleaned Temp: 6.52 MB
  Cumulative Circuit Memory: 1087.01 MB (Total circuits: 0)
  Complete Ansatz Memory Breakdown:
    shared_ptr overhead: 0.19 KB
    theta (params): 0.02 KB (0/0)
    parameterized_gates: 0.02 KB (0/0)
    gate_parameter_pointers: 0.02 KB (nested structure)
    gate_coefficients: 0.02 KB (estimated)
    excitation_index_map: 0.06 KB (string map)
    circuit_gates: 181376.27 KB (614051/1055280)
    object_overhead: 0.25 KB
    Total Ansatz Object: 177.126 MB
    Memory Efficiency: 58.2% (useful data vs total)
    Memory Hotspot: circuit_gates (100.0% of object)
  Memory/Clique: No cliques available for analysis
  → Net Memory Delta: CPU +162.38 MB, GPU +24.00 MB [circuit vs delta: 17.7 MB diff]
Processing operator 34/645 - CPU: 1471.60 MB, GPU: 38.6603 GB free
Operator 34: 73904 Pauli terms -> 26723 cliques (efficiency: 36.2%) - Memory: 121.38 MB
  STL Containers: PauliMap=97.86MB, CommOps=52.09MB, Cliques=1.79MB
  Container Overhead: PauliMap=1.0x, CommOps=10.3x
  Container Details: CommOps size=73904, capacity=758656, PauliMap size=758656, buckets=1447153
  Accumulated Data: Coeffs=38.34MB, ZMasks=38.34MB, Observables=5.50MB
  Circuit + Temp Memory: +172.76 MB, Persistent Circuit: +166.33 MB, Cleaned Temp: 6.43 MB
  Cumulative Circuit Memory: 1253.34 MB (Total circuits: 0)
  Complete Ansatz Memory Breakdown:
    shared_ptr overhead: 0.19 KB
    theta (params): 0.02 KB (0/0)
    parameterized_gates: 0.02 KB (0/0)
    gate_parameter_pointers: 0.02 KB (nested structure)
    gate_coefficients: 0.02 KB (estimated)
    excitation_index_map: 0.06 KB (string map)
    circuit_gates: 127199.90 KB (679565/740072)
    object_overhead: 0.25 KB
    Total Ansatz Object: 124.219 MB
    Memory Efficiency: 91.8% (useful data vs total)
    Memory Hotspot: circuit_gates (100.0% of object)
  Memory/Clique: No cliques available for analysis
  → Net Memory Delta: CPU +183.82 MB, GPU +28.00 MB [circuit vs delta: 17.5 MB diff]
Processing operator 35/645 - CPU: 1655.42 MB, GPU: 38.6329 GB free
Operator 35: 76160 Pauli terms -> 24194 cliques (efficiency: 31.8%) - Memory: 117.84 MB
  STL Containers: PauliMap=95.20MB, CommOps=50.49MB, Cliques=1.69MB
  Container Overhead: PauliMap=1.0x, CommOps=9.7x
  Container Details: CommOps size=76160, capacity=735359, PauliMap size=735359, buckets=1447153
  Accumulated Data: Coeffs=40.67MB, ZMasks=40.67MB, Observables=6.31MB
  Circuit + Temp Memory: +157.46 MB, Persistent Circuit: +150.77 MB, Cleaned Temp: 6.69 MB
  Cumulative Circuit Memory: 1404.10 MB (Total circuits: 0)
  Complete Ansatz Memory Breakdown:
    shared_ptr overhead: 0.19 KB
    theta (params): 0.02 KB (0/0)
    parameterized_gates: 0.02 KB (0/0)
    gate_parameter_pointers: 0.02 KB (nested structure)
    gate_coefficients: 0.02 KB (estimated)
    excitation_index_map: 0.06 KB (string map)
    circuit_gates: 156625.59 KB (593716/911276)
    object_overhead: 0.25 KB
    Total Ansatz Object: 152.955 MB
    Memory Efficiency: 65.2% (useful data vs total)
    Memory Hotspot: circuit_gates (100.0% of object)
  Memory/Clique: No cliques available for analysis
  → Net Memory Delta: CPU +157.62 MB, GPU +24.00 MB [circuit vs delta: 6.9 MB diff]
Processing operator 36/645 - CPU: 1813.05 MB, GPU: 38.6095 GB free
Operator 36: 76160 Pauli terms -> 21274 cliques (efficiency: 27.9%) - Memory: 117.69 MB
  STL Containers: PauliMap=95.43MB, CommOps=50.63MB, Cliques=1.55MB
  Container Overhead: PauliMap=1.0x, CommOps=9.7x
  Container Details: CommOps size=76160, capacity=737371, PauliMap size=737371, buckets=1447153
  Accumulated Data: Coeffs=41.84MB, ZMasks=41.84MB, Observables=7.05MB
  Circuit + Temp Memory: +133.07 MB, Persistent Circuit: +126.15 MB, Cleaned Temp: 6.92 MB
  Cumulative Circuit Memory: 1530.25 MB (Total circuits: 0)
  Complete Ansatz Memory Breakdown:
    shared_ptr overhead: 0.19 KB
    theta (params): 0.02 KB (0/0)
    parameterized_gates: 0.02 KB (0/0)
    gate_parameter_pointers: 0.02 KB (nested structure)
    gate_coefficients: 0.02 KB (estimated)
    excitation_index_map: 0.06 KB (string map)
    circuit_gates: 136107.84 KB (545502/791900)
    object_overhead: 0.25 KB
    Total Ansatz Object: 132.918 MB
    Memory Efficiency: 68.9% (useful data vs total)
    Memory Hotspot: circuit_gates (100.0% of object)
  Memory/Clique: No cliques available for analysis
  → Net Memory Delta: CPU +144.18 MB, GPU +22.00 MB [circuit vs delta: 18.0 MB diff]
Processing operator 37/645 - CPU: 1957.23 MB, GPU: 38.5880 GB free
Operator 37: 76160 Pauli terms -> 21420 cliques (efficiency: 28.1%) - Memory: 117.92 MB
  STL Containers: PauliMap=95.59MB, CommOps=50.73MB, Cliques=1.56MB
  Container Overhead: PauliMap=1.0x, CommOps=9.7x
  Container Details: CommOps size=76160, capacity=738815, PauliMap size=738815, buckets=1447153
  Accumulated Data: Coeffs=43.00MB, ZMasks=43.00MB, Observables=7.70MB
  Circuit + Temp Memory: +135.38 MB, Persistent Circuit: +128.37 MB, Cleaned Temp: 7.01 MB
  Cumulative Circuit Memory: 1658.62 MB (Total circuits: 0)
  Complete Ansatz Memory Breakdown:
    shared_ptr overhead: 0.19 KB
    theta (params): 0.02 KB (0/0)
    parameterized_gates: 0.02 KB (0/0)
    gate_parameter_pointers: 0.02 KB (nested structure)
    gate_coefficients: 0.02 KB (estimated)
    excitation_index_map: 0.06 KB (string map)
    circuit_gates: 136404.84 KB (552364/793628)
    object_overhead: 0.25 KB
    Total Ansatz Object: 133.208 MB
    Memory Efficiency: 69.6% (useful data vs total)
    Memory Hotspot: circuit_gates (100.0% of object)
  Memory/Clique: No cliques available for analysis
  → Net Memory Delta: CPU +146.50 MB, GPU +20.00 MB [circuit vs delta: 18.1 MB diff]
Processing operator 38/645 - CPU: 2103.72 MB, GPU: 38.5685 GB free
Operator 38: 76160 Pauli terms -> 23402 cliques (efficiency: 30.7%) - Memory: 117.82 MB
  STL Containers: PauliMap=95.27MB, CommOps=50.54MB, Cliques=1.65MB
  Container Overhead: PauliMap=1.0x, CommOps=9.7x
  Container Details: CommOps size=76160, capacity=736031, PauliMap size=736031, buckets=1447153
  Accumulated Data: Coeffs=44.16MB, ZMasks=44.16MB, Observables=8.35MB
  Circuit + Temp Memory: +147.40 MB, Persistent Circuit: +140.54 MB, Cleaned Temp: 6.86 MB
  Cumulative Circuit Memory: 1799.16 MB (Total circuits: 0)
  Complete Ansatz Memory Breakdown:
    shared_ptr overhead: 0.19 KB
    theta (params): 0.02 KB (0/0)
    parameterized_gates: 0.02 KB (0/0)
    gate_parameter_pointers: 0.02 KB (nested structure)
    gate_coefficients: 0.02 KB (estimated)
    excitation_index_map: 0.06 KB (string map)
    circuit_gates: 173051.68 KB (596142/1006846)
    object_overhead: 0.25 KB
    Total Ansatz Object: 168.996 MB
    Memory Efficiency: 59.2% (useful data vs total)
    Memory Hotspot: circuit_gates (100.0% of object)
  Memory/Clique: No cliques available for analysis
  → Net Memory Delta: CPU +158.48 MB, GPU +24.00 MB [circuit vs delta: 17.9 MB diff]
Processing operator 39/645 - CPU: 2262.20 MB, GPU: 38.5450 GB free
Operator 39: 73904 Pauli terms -> 25695 cliques (efficiency: 34.8%) - Memory: 121.93 MB
  STL Containers: PauliMap=98.42MB, CommOps=52.43MB, Cliques=1.74MB
  Container Overhead: PauliMap=1.0x, CommOps=10.3x
  Container Details: CommOps size=73904, capacity=763520, PauliMap size=763520, buckets=1447153
  Accumulated Data: Coeffs=43.98MB, ZMasks=43.98MB, Observables=9.07MB
  Circuit + Temp Memory: +165.33 MB, Persistent Circuit: +158.72 MB, Cleaned Temp: 6.61 MB
  Cumulative Circuit Memory: 1957.88 MB (Total circuits: 0)
  Complete Ansatz Memory Breakdown:
    shared_ptr overhead: 0.19 KB
    theta (params): 0.02 KB (0/0)
    parameterized_gates: 0.02 KB (0/0)
    gate_parameter_pointers: 0.02 KB (nested structure)
    gate_coefficients: 0.02 KB (estimated)
    excitation_index_map: 0.06 KB (string map)
    circuit_gates: 223445.43 KB (658015/1300046)
    object_overhead: 0.25 KB
    Total Ansatz Object: 218.209 MB
    Memory Efficiency: 50.6% (useful data vs total)
    Memory Hotspot: circuit_gates (100.0% of object)
  Memory/Clique: No cliques available for analysis
  → Net Memory Delta: CPU +176.55 MB, GPU +26.00 MB [circuit vs delta: 17.8 MB diff]

--- SUMMARY: Operators 30-39 ---
  Batch Memory Growth: +1645.73 MB
  Pauli Terms Generated: 757088
  Commuting Groups: 236743
  Average Efficiency: 31.3%
  Cumulative Memory: 2438.75 MB
  Average Memory/Operator: 164.57 MB
  Theoretical Memory/Op: 4.62 MB (bloat factor: 35.6x)
  Memory Growth Rate: 164.6 MB/op
  Memory Bloat Factor: 35.6x
  System Memory Pressure: 10.7%
--- END SUMMARY ---

Processing operator 40/645 - CPU: 2438.75 MB, GPU: 38.5197 GB free
Operator 40: 73904 Pauli terms -> 23356 cliques (efficiency: 31.6%) - Memory: 121.08 MB
  STL Containers: PauliMap=98.03MB, CommOps=52.19MB, Cliques=1.63MB
  Container Overhead: PauliMap=1.0x, CommOps=10.3x
  Container Details: CommOps size=73904, capacity=760128, PauliMap size=760128, buckets=1447153
  Accumulated Data: Coeffs=45.11MB, ZMasks=45.11MB, Observables=9.85MB
  Circuit + Temp Memory: +145.93 MB, Persistent Circuit: +139.55 MB, Cleaned Temp: 6.39 MB
  Cumulative Circuit Memory: 2097.43 MB (Total circuits: 0)
  Complete Ansatz Memory Breakdown:
    shared_ptr overhead: 0.19 KB
    theta (params): 0.02 KB (0/0)
    parameterized_gates: 0.02 KB (0/0)
    gate_parameter_pointers: 0.02 KB (nested structure)
    gate_coefficients: 0.02 KB (estimated)
    excitation_index_map: 0.06 KB (string map)
    circuit_gates: 182658.12 KB (588876/1062738)
    object_overhead: 0.25 KB
    Total Ansatz Object: 178.378 MB
    Memory Efficiency: 55.4% (useful data vs total)
    Memory Hotspot: circuit_gates (100.0% of object)
  Memory/Clique: No cliques available for analysis
  → Net Memory Delta: CPU +157.14 MB, GPU +24.00 MB [circuit vs delta: 17.6 MB diff]
Processing operator 41/645 - CPU: 2595.89 MB, GPU: 38.4962 GB free
Operator 41: 73904 Pauli terms -> 21214 cliques (efficiency: 28.7%) - Memory: 121.02 MB
  STL Containers: PauliMap=98.24MB, CommOps=52.32MB, Cliques=1.53MB
  Container Overhead: PauliMap=1.0x, CommOps=10.3x
  Container Details: CommOps size=73904, capacity=761984, PauliMap size=761984, buckets=1447153
  Accumulated Data: Coeffs=46.24MB, ZMasks=46.24MB, Observables=10.56MB
  Circuit + Temp Memory: +133.33 MB, Persistent Circuit: +126.87 MB, Cleaned Temp: 6.46 MB
  Cumulative Circuit Memory: 2224.30 MB (Total circuits: 0)
  Complete Ansatz Memory Breakdown:
    shared_ptr overhead: 0.19 KB
    theta (params): 0.02 KB (0/0)
    parameterized_gates: 0.02 KB (0/0)
    gate_parameter_pointers: 0.02 KB (nested structure)
    gate_coefficients: 0.02 KB (estimated)
    excitation_index_map: 0.06 KB (string map)
    circuit_gates: 172102.93 KB (550754/1001326)
    object_overhead: 0.25 KB
    Total Ansatz Object: 168.070 MB
    Memory Efficiency: 55.0% (useful data vs total)
    Memory Hotspot: circuit_gates (100.0% of object)
  Memory/Clique: No cliques available for analysis
  → Net Memory Delta: CPU +144.59 MB, GPU +22.00 MB [circuit vs delta: 17.7 MB diff]
Processing operator 42/645 - CPU: 2740.48 MB, GPU: 38.4747 GB free
Operator 42: 73904 Pauli terms -> 21511 cliques (efficiency: 29.1%) - Memory: 121.34 MB
  STL Containers: PauliMap=98.46MB, CommOps=52.45MB, Cliques=1.55MB
  Container Overhead: PauliMap=1.0x, CommOps=10.3x
  Container Details: CommOps size=73904, capacity=763840, PauliMap size=763840, buckets=1447153
  Accumulated Data: Coeffs=47.36MB, ZMasks=47.36MB, Observables=11.21MB
  Circuit + Temp Memory: +136.80 MB, Persistent Circuit: +130.19 MB, Cleaned Temp: 6.61 MB
  Cumulative Circuit Memory: 2354.48 MB (Total circuits: 0)
  Complete Ansatz Memory Breakdown:
    shared_ptr overhead: 0.19 KB
    theta (params): 0.02 KB (0/0)
    parameterized_gates: 0.02 KB (0/0)
    gate_parameter_pointers: 0.02 KB (nested structure)
    gate_coefficients: 0.02 KB (estimated)
    excitation_index_map: 0.06 KB (string map)
    circuit_gates: 130042.37 KB (559967/756610)
    object_overhead: 0.25 KB
    Total Ansatz Object: 126.995 MB
    Memory Efficiency: 74.0% (useful data vs total)
    Memory Hotspot: circuit_gates (100.0% of object)
  Memory/Clique: No cliques available for analysis
  → Net Memory Delta: CPU +148.04 MB, GPU +20.00 MB [circuit vs delta: 17.8 MB diff]
Processing operator 43/645 - CPU: 2888.52 MB, GPU: 38.4552 GB free
Operator 43: 73904 Pauli terms -> 22769 cliques (efficiency: 30.8%) - Memory: 120.96 MB
  STL Containers: PauliMap=98.01MB, CommOps=52.18MB, Cliques=1.61MB
  Container Overhead: PauliMap=1.0x, CommOps=10.3x
  Container Details: CommOps size=73904, capacity=759936, PauliMap size=759936, buckets=1447153
  Accumulated Data: Coeffs=48.49MB, ZMasks=48.49MB, Observables=11.87MB
  Circuit + Temp Memory: +145.47 MB, Persistent Circuit: +139.13 MB, Cleaned Temp: 6.34 MB
  Cumulative Circuit Memory: 2493.62 MB (Total circuits: 0)
  Complete Ansatz Memory Breakdown:
    shared_ptr overhead: 0.19 KB
    theta (params): 0.02 KB (0/0)
    parameterized_gates: 0.02 KB (0/0)
    gate_parameter_pointers: 0.02 KB (nested structure)
    gate_coefficients: 0.02 KB (estimated)
    excitation_index_map: 0.06 KB (string map)
    circuit_gates: 199388.09 KB (590483/1160076)
    object_overhead: 0.25 KB
    Total Ansatz Object: 194.716 MB
    Memory Efficiency: 50.9% (useful data vs total)
    Memory Hotspot: circuit_gates (100.0% of object)
  Memory/Clique: No cliques available for analysis
  → Net Memory Delta: CPU +156.64 MB, GPU +24.00 MB [circuit vs delta: 17.5 MB diff]
Processing operator 44/645 - CPU: 3045.16 MB, GPU: 38.4318 GB free
Operator 44: 65600 Pauli terms -> 22835 cliques (efficiency: 34.8%) - Memory: 124.87 MB
  STL Containers: PauliMap=101.73MB, CommOps=54.42MB, Cliques=1.55MB
  Container Overhead: PauliMap=1.0x, CommOps=12.1x
  Container Details: CommOps size=65600, capacity=792479, PauliMap size=792479, buckets=1447153
  Accumulated Data: Coeffs=44.04MB, ZMasks=44.04MB, Observables=12.56MB
  Circuit + Temp Memory: +146.46 MB, Persistent Circuit: +141.89 MB, Cleaned Temp: 4.57 MB
  Cumulative Circuit Memory: 2635.51 MB (Total circuits: 0)
  Complete Ansatz Memory Breakdown:
    shared_ptr overhead: 0.19 KB
    theta (params): 0.02 KB (0/0)
    parameterized_gates: 0.02 KB (0/0)
    gate_parameter_pointers: 0.02 KB (nested structure)
    gate_coefficients: 0.02 KB (estimated)
    excitation_index_map: 0.06 KB (string map)
    circuit_gates: 138507.21 KB (579731/805860)
    object_overhead: 0.25 KB
    Total Ansatz Object: 135.262 MB
    Memory Efficiency: 71.9% (useful data vs total)
    Memory Hotspot: circuit_gates (100.0% of object)
  Memory/Clique: No cliques available for analysis
  → Net Memory Delta: CPU +157.70 MB, GPU +22.00 MB [circuit vs delta: 15.8 MB diff]
Processing operator 45/645 - CPU: 3202.86 MB, GPU: 38.4103 GB free
Operator 45: 76160 Pauli terms -> 24445 cliques (efficiency: 32.1%) - Memory: 117.28 MB
  STL Containers: PauliMap=94.73MB, CommOps=50.21MB, Cliques=1.70MB
  Container Overhead: PauliMap=1.0x, CommOps=9.6x
  Container Details: CommOps size=76160, capacity=731247, PauliMap size=731247, buckets=1447153
  Accumulated Data: Coeffs=52.29MB, ZMasks=52.29MB, Observables=13.26MB
  Circuit + Temp Memory: +142.20 MB, Persistent Circuit: +135.76 MB, Cleaned Temp: 6.44 MB
  Cumulative Circuit Memory: 2771.27 MB (Total circuits: 0)
  Complete Ansatz Memory Breakdown:
    shared_ptr overhead: 0.19 KB
    theta (params): 0.02 KB (0/0)
    parameterized_gates: 0.02 KB (0/0)
    gate_parameter_pointers: 0.02 KB (nested structure)
    gate_coefficients: 0.02 KB (estimated)
    excitation_index_map: 0.06 KB (string map)
    circuit_gates: 130534.27 KB (587405/759472)
    object_overhead: 0.25 KB
    Total Ansatz Object: 127.475 MB
    Memory Efficiency: 77.3% (useful data vs total)
    Memory Hotspot: circuit_gates (100.0% of object)
  Memory/Clique: No cliques available for analysis
  → Net Memory Delta: CPU +153.37 MB, GPU +26.00 MB [circuit vs delta: 17.6 MB diff]
Processing operator 46/645 - CPU: 3356.23 MB, GPU: 38.3849 GB free
Operator 46: 76160 Pauli terms -> 21098 cliques (efficiency: 27.7%) - Memory: 116.90 MB
  STL Containers: PauliMap=94.83MB, CommOps=50.27MB, Cliques=1.55MB
  Container Overhead: PauliMap=1.0x, CommOps=9.6x
  Container Details: CommOps size=76160, capacity=732127, PauliMap size=732127, buckets=1447153
  Accumulated Data: Coeffs=53.46MB, ZMasks=53.46MB, Observables=14.01MB
  Circuit + Temp Memory: +133.63 MB, Persistent Circuit: +127.00 MB, Cleaned Temp: 6.64 MB
  Cumulative Circuit Memory: 2898.27 MB (Total circuits: 0)
  Complete Ansatz Memory Breakdown:
    shared_ptr overhead: 0.19 KB
    theta (params): 0.02 KB (0/0)
    parameterized_gates: 0.02 KB (0/0)
    gate_parameter_pointers: 0.02 KB (nested structure)
    gate_coefficients: 0.02 KB (estimated)
    excitation_index_map: 0.06 KB (string map)
    circuit_gates: 102446.80 KB (532266/596054)
    object_overhead: 0.25 KB
    Total Ansatz Object: 100.046 MB
    Memory Efficiency: 89.3% (useful data vs total)
    Memory Hotspot: circuit_gates (100.0% of object)
  Memory/Clique: No cliques available for analysis
  → Net Memory Delta: CPU +144.67 MB, GPU +20.00 MB [circuit vs delta: 17.7 MB diff]
Processing operator 47/645 - CPU: 3500.89 MB, GPU: 38.3654 GB free
Operator 47: 76160 Pauli terms -> 21266 cliques (efficiency: 27.9%) - Memory: 117.33 MB
  STL Containers: PauliMap=95.14MB, CommOps=50.46MB, Cliques=1.55MB
  Container Overhead: PauliMap=1.0x, CommOps=9.6x
  Container Details: CommOps size=76160, capacity=734879, PauliMap size=734879, buckets=1447153
  Accumulated Data: Coeffs=54.62MB, ZMasks=54.62MB, Observables=14.65MB
  Circuit + Temp Memory: +132.28 MB, Persistent Circuit: +125.55 MB, Cleaned Temp: 6.72 MB
  Cumulative Circuit Memory: 3023.82 MB (Total circuits: 0)
  Complete Ansatz Memory Breakdown:
    shared_ptr overhead: 0.19 KB
    theta (params): 0.02 KB (0/0)
    parameterized_gates: 0.02 KB (0/0)
    gate_parameter_pointers: 0.02 KB (nested structure)
    gate_coefficients: 0.02 KB (estimated)
    excitation_index_map: 0.06 KB (string map)
    circuit_gates: 135830.09 KB (540436/790284)
    object_overhead: 0.25 KB
    Total Ansatz Object: 132.647 MB
    Memory Efficiency: 68.4% (useful data vs total)
    Memory Hotspot: circuit_gates (100.0% of object)
  Memory/Clique: No cliques available for analysis
  → Net Memory Delta: CPU +140.33 MB, GPU +22.00 MB [circuit vs delta: 14.8 MB diff]
Processing operator 48/645 - CPU: 3641.23 MB, GPU: 38.3439 GB free
Operator 48: 76160 Pauli terms -> 23097 cliques (efficiency: 30.3%) - Memory: 117.06 MB
  STL Containers: PauliMap=94.71MB, CommOps=50.20MB, Cliques=1.64MB
  Container Overhead: PauliMap=1.0x, CommOps=9.6x
  Container Details: CommOps size=76160, capacity=731135, PauliMap size=731135, buckets=1447153
  Accumulated Data: Coeffs=55.78MB, ZMasks=55.78MB, Observables=15.30MB
  Circuit + Temp Memory: +142.60 MB, Persistent Circuit: +136.16 MB, Cleaned Temp: 6.44 MB
  Cumulative Circuit Memory: 3159.98 MB (Total circuits: 0)
  Complete Ansatz Memory Breakdown:
    shared_ptr overhead: 0.19 KB
    theta (params): 0.02 KB (0/0)
    parameterized_gates: 0.02 KB (0/0)
    gate_parameter_pointers: 0.02 KB (nested structure)
    gate_coefficients: 0.02 KB (estimated)
    excitation_index_map: 0.06 KB (string map)
    circuit_gates: 135507.65 KB (579863/788408)
    object_overhead: 0.25 KB
    Total Ansatz Object: 132.332 MB
    Memory Efficiency: 73.5% (useful data vs total)
    Memory Hotspot: circuit_gates (100.0% of object)
  Memory/Clique: No cliques available for analysis
  → Net Memory Delta: CPU +153.77 MB, GPU +24.00 MB [circuit vs delta: 17.6 MB diff]
Processing operator 49/645 - CPU: 3794.99 MB, GPU: 38.3204 GB free
Operator 49: 73904 Pauli terms -> 26141 cliques (efficiency: 35.4%) - Memory: 121.25 MB
  STL Containers: PauliMap=97.83MB, CommOps=52.07MB, Cliques=1.76MB
  Container Overhead: PauliMap=1.0x, CommOps=10.3x
  Container Details: CommOps size=73904, capacity=758336, PauliMap size=758336, buckets=1447153
  Accumulated Data: Coeffs=55.26MB, ZMasks=55.26MB, Observables=16.00MB
  Circuit + Temp Memory: +167.46 MB, Persistent Circuit: +161.20 MB, Cleaned Temp: 6.27 MB
  Cumulative Circuit Memory: 3321.18 MB (Total circuits: 0)
  Complete Ansatz Memory Breakdown:
    shared_ptr overhead: 0.19 KB
    theta (params): 0.02 KB (0/0)
    parameterized_gates: 0.02 KB (0/0)
    gate_parameter_pointers: 0.02 KB (nested structure)
    gate_coefficients: 0.02 KB (estimated)
    excitation_index_map: 0.06 KB (string map)
    circuit_gates: 214002.96 KB (655925/1245108)
    object_overhead: 0.25 KB
    Total Ansatz Object: 208.988 MB
    Memory Efficiency: 52.7% (useful data vs total)
    Memory Hotspot: circuit_gates (100.0% of object)
  Memory/Clique: No cliques available for analysis
  → Net Memory Delta: CPU +178.67 MB, GPU +26.00 MB [circuit vs delta: 17.5 MB diff]

--- SUMMARY: Operators 40-49 ---
  Batch Memory Growth: +1534.91 MB
  Pauli Terms Generated: 739760
  Commuting Groups: 227732
  Average Efficiency: 30.8%
  Cumulative Memory: 3973.66 MB
  Average Memory/Operator: 153.49 MB
  Theoretical Memory/Op: 4.47 MB (bloat factor: 34.3x)
  Memory Growth Rate: 153.5 MB/op
  Memory Bloat Factor: 34.3x
  System Memory Pressure: 11.3%
--- END SUMMARY ---

Processing operator 50/645 - CPU: 3973.66 MB, GPU: 38.2950 GB free
Operator 50: 76160 Pauli terms -> 24760 cliques (efficiency: 32.5%) - Memory: 117.60 MB
  STL Containers: PauliMap=94.94MB, CommOps=50.34MB, Cliques=1.71MB
  Container Overhead: PauliMap=1.0x, CommOps=9.6x
  Container Details: CommOps size=76160, capacity=733083, PauliMap size=733083, buckets=1447153
  Accumulated Data: Coeffs=58.11MB, ZMasks=58.11MB, Observables=16.80MB
  Circuit + Temp Memory: +150.60 MB, Persistent Circuit: +144.13 MB, Cleaned Temp: 6.47 MB
  Cumulative Circuit Memory: 3465.31 MB (Total circuits: 0)
  Complete Ansatz Memory Breakdown:
    shared_ptr overhead: 0.19 KB
    theta (params): 0.02 KB (0/0)
    parameterized_gates: 0.02 KB (0/0)
    gate_parameter_pointers: 0.02 KB (nested structure)
    gate_coefficients: 0.02 KB (estimated)
    excitation_index_map: 0.06 KB (string map)
    circuit_gates: 154091.12 KB (609010/896530)
    object_overhead: 0.25 KB
    Total Ansatz Object: 150.480 MB
    Memory Efficiency: 67.9% (useful data vs total)
    Memory Hotspot: circuit_gates (100.0% of object)
  Memory/Clique: No cliques available for analysis
  → Net Memory Delta: CPU +161.87 MB, GPU +24.00 MB [circuit vs delta: 17.7 MB diff]
Processing operator 51/645 - CPU: 4135.53 MB, GPU: 38.2716 GB free
Operator 51: 76160 Pauli terms -> 22307 cliques (efficiency: 29.3%) - Memory: 117.64 MB
  STL Containers: PauliMap=95.27MB, CommOps=50.53MB, Cliques=1.60MB
  Container Overhead: PauliMap=1.0x, CommOps=9.7x
  Container Details: CommOps size=76160, capacity=735967, PauliMap size=735967, buckets=1447153
  Accumulated Data: Coeffs=59.27MB, ZMasks=59.27MB, Observables=17.56MB
  Circuit + Temp Memory: +149.89 MB, Persistent Circuit: +142.99 MB, Cleaned Temp: 6.90 MB
  Cumulative Circuit Memory: 3608.30 MB (Total circuits: 0)
  Complete Ansatz Memory Breakdown:
    shared_ptr overhead: 0.19 KB
    theta (params): 0.02 KB (0/0)
    parameterized_gates: 0.02 KB (0/0)
    gate_parameter_pointers: 0.02 KB (nested structure)
    gate_coefficients: 0.02 KB (estimated)
    excitation_index_map: 0.06 KB (string map)
    circuit_gates: 123822.21 KB (569681/720420)
    object_overhead: 0.25 KB
    Total Ansatz Object: 120.921 MB
    Memory Efficiency: 79.1% (useful data vs total)
    Memory Hotspot: circuit_gates (100.0% of object)
  Memory/Clique: No cliques available for analysis
  → Net Memory Delta: CPU +160.83 MB, GPU +24.00 MB [circuit vs delta: 17.8 MB diff]
Processing operator 52/645 - CPU: 4296.36 MB, GPU: 38.2482 GB free
Operator 52: 76160 Pauli terms -> 24143 cliques (efficiency: 31.7%) - Memory: 117.28 MB
  STL Containers: PauliMap=94.76MB, CommOps=50.23MB, Cliques=1.69MB
  Container Overhead: PauliMap=1.0x, CommOps=9.6x
  Container Details: CommOps size=76160, capacity=731551, PauliMap size=731551, buckets=1447153
  Accumulated Data: Coeffs=60.43MB, ZMasks=60.43MB, Observables=18.24MB
  Circuit + Temp Memory: +152.25 MB, Persistent Circuit: +145.82 MB, Cleaned Temp: 6.42 MB
  Cumulative Circuit Memory: 3754.13 MB (Total circuits: 0)
  Complete Ansatz Memory Breakdown:
    shared_ptr overhead: 0.19 KB
    theta (params): 0.02 KB (0/0)
    parameterized_gates: 0.02 KB (0/0)
    gate_parameter_pointers: 0.02 KB (nested structure)
    gate_coefficients: 0.02 KB (estimated)
    excitation_index_map: 0.06 KB (string map)
    circuit_gates: 163593.05 KB (611719/951814)
    object_overhead: 0.25 KB
    Total Ansatz Object: 159.759 MB
    Memory Efficiency: 64.3% (useful data vs total)
    Memory Hotspot: circuit_gates (100.0% of object)
  Memory/Clique: No cliques available for analysis
  → Net Memory Delta: CPU +154.39 MB, GPU +24.00 MB [circuit vs delta: 8.6 MB diff]
Processing operator 53/645 - CPU: 4450.75 MB, GPU: 38.2247 GB free
Operator 53: 73904 Pauli terms -> 26666 cliques (efficiency: 36.1%) - Memory: 121.49 MB
  STL Containers: PauliMap=97.96MB, CommOps=52.15MB, Cliques=1.78MB
  Container Overhead: PauliMap=1.0x, CommOps=10.3x
  Container Details: CommOps size=73904, capacity=759488, PauliMap size=759488, buckets=1447153
  Accumulated Data: Coeffs=59.77MB, ZMasks=59.77MB, Observables=18.97MB
  Circuit + Temp Memory: +171.58 MB, Persistent Circuit: +165.19 MB, Cleaned Temp: 6.39 MB
  Cumulative Circuit Memory: 3919.32 MB (Total circuits: 0)
  Complete Ansatz Memory Breakdown:
    shared_ptr overhead: 0.19 KB
    theta (params): 0.02 KB (0/0)
    parameterized_gates: 0.02 KB (0/0)
    gate_parameter_pointers: 0.02 KB (nested structure)
    gate_coefficients: 0.02 KB (estimated)
    excitation_index_map: 0.06 KB (string map)
    circuit_gates: 222359.52 KB (673620/1293728)
    object_overhead: 0.25 KB
    Total Ansatz Object: 217.149 MB
    Memory Efficiency: 52.1% (useful data vs total)
    Memory Hotspot: circuit_gates (100.0% of object)
  Memory/Clique: No cliques available for analysis
  → Net Memory Delta: CPU +182.71 MB, GPU +26.00 MB [circuit vs delta: 17.5 MB diff]
Processing operator 54/645 - CPU: 4633.46 MB, GPU: 38.1993 GB free
Operator 54: 76160 Pauli terms -> 23363 cliques (efficiency: 30.7%) - Memory: 117.89 MB
  STL Containers: PauliMap=95.34MB, CommOps=50.58MB, Cliques=1.65MB
  Container Overhead: PauliMap=1.0x, CommOps=9.7x
  Container Details: CommOps size=76160, capacity=736575, PauliMap size=736575, buckets=1447153
  Accumulated Data: Coeffs=62.75MB, ZMasks=62.75MB, Observables=19.79MB
  Circuit + Temp Memory: +148.20 MB, Persistent Circuit: +141.25 MB, Cleaned Temp: 6.94 MB
  Cumulative Circuit Memory: 4060.57 MB (Total circuits: 0)
  Complete Ansatz Memory Breakdown:
    shared_ptr overhead: 0.19 KB
    theta (params): 0.02 KB (0/0)
    parameterized_gates: 0.02 KB (0/0)
    gate_parameter_pointers: 0.02 KB (nested structure)
    gate_coefficients: 0.02 KB (estimated)
    excitation_index_map: 0.06 KB (string map)
    circuit_gates: 112501.15 KB (584687/654552)
    object_overhead: 0.25 KB
    Total Ansatz Object: 109.865 MB
    Memory Efficiency: 89.3% (useful data vs total)
    Memory Hotspot: circuit_gates (100.0% of object)
  Memory/Clique: No cliques available for analysis
  → Net Memory Delta: CPU +159.23 MB, GPU +24.00 MB [circuit vs delta: 18.0 MB diff]
Processing operator 55/645 - CPU: 4792.69 MB, GPU: 38.1759 GB free
Operator 55: 76160 Pauli terms -> 21682 cliques (efficiency: 28.5%) - Memory: 117.94 MB
  STL Containers: PauliMap=95.57MB, CommOps=50.72MB, Cliques=1.57MB
  Container Overhead: PauliMap=1.0x, CommOps=9.7x
  Container Details: CommOps size=76160, capacity=738655, PauliMap size=738655, buckets=1447153
  Accumulated Data: Coeffs=63.92MB, ZMasks=63.92MB, Observables=20.50MB
  Circuit + Temp Memory: +136.29 MB, Persistent Circuit: +129.33 MB, Cleaned Temp: 6.96 MB
  Cumulative Circuit Memory: 4189.90 MB (Total circuits: 0)
  Complete Ansatz Memory Breakdown:
    shared_ptr overhead: 0.19 KB
    theta (params): 0.02 KB (0/0)
    parameterized_gates: 0.02 KB (0/0)
    gate_parameter_pointers: 0.02 KB (nested structure)
    gate_coefficients: 0.02 KB (estimated)
    excitation_index_map: 0.06 KB (string map)
    circuit_gates: 147256.34 KB (556252/856764)
    object_overhead: 0.25 KB
    Total Ansatz Object: 143.806 MB
    Memory Efficiency: 64.9% (useful data vs total)
    Memory Hotspot: circuit_gates (100.0% of object)
  Memory/Clique: No cliques available for analysis
  → Net Memory Delta: CPU +142.86 MB, GPU +22.00 MB [circuit vs delta: 13.5 MB diff]
Processing operator 56/645 - CPU: 4935.55 MB, GPU: 38.1544 GB free
Operator 56: 76160 Pauli terms -> 23478 cliques (efficiency: 30.8%) - Memory: 117.48 MB
  STL Containers: PauliMap=95.00MB, CommOps=50.37MB, Cliques=1.66MB
  Container Overhead: PauliMap=1.0x, CommOps=9.6x
  Container Details: CommOps size=76160, capacity=733631, PauliMap size=733631, buckets=1447153
  Accumulated Data: Coeffs=65.08MB, ZMasks=65.08MB, Observables=21.16MB
  Circuit + Temp Memory: +146.56 MB, Persistent Circuit: +140.05 MB, Cleaned Temp: 6.50 MB
  Cumulative Circuit Memory: 4329.96 MB (Total circuits: 0)
  Complete Ansatz Memory Breakdown:
    shared_ptr overhead: 0.19 KB
    theta (params): 0.02 KB (0/0)
    parameterized_gates: 0.02 KB (0/0)
    gate_parameter_pointers: 0.02 KB (nested structure)
    gate_coefficients: 0.02 KB (estimated)
    excitation_index_map: 0.06 KB (string map)
    circuit_gates: 135857.59 KB (596978/790444)
    object_overhead: 0.25 KB
    Total Ansatz Object: 132.674 MB
    Memory Efficiency: 75.5% (useful data vs total)
    Memory Hotspot: circuit_gates (100.0% of object)
  Memory/Clique: No cliques available for analysis
  → Net Memory Delta: CPU +157.83 MB, GPU +24.00 MB [circuit vs delta: 17.8 MB diff]
Processing operator 57/645 - CPU: 5093.38 MB, GPU: 38.1310 GB free
Operator 57: 73904 Pauli terms -> 25725 cliques (efficiency: 34.8%) - Memory: 121.79 MB
  STL Containers: PauliMap=98.31MB, CommOps=52.36MB, Cliques=1.74MB
  Container Overhead: PauliMap=1.0x, CommOps=10.3x
  Container Details: CommOps size=73904, capacity=762560, PauliMap size=762560, buckets=1447153
  Accumulated Data: Coeffs=64.28MB, ZMasks=64.28MB, Observables=21.88MB
  Circuit + Temp Memory: +165.34 MB, Persistent Circuit: +158.76 MB, Cleaned Temp: 6.59 MB
  Cumulative Circuit Memory: 4488.71 MB (Total circuits: 0)
  Complete Ansatz Memory Breakdown:
    shared_ptr overhead: 0.19 KB
    theta (params): 0.02 KB (0/0)
    parameterized_gates: 0.02 KB (0/0)
    gate_parameter_pointers: 0.02 KB (nested structure)
    gate_coefficients: 0.02 KB (estimated)
    excitation_index_map: 0.06 KB (string map)
    circuit_gates: 114940.05 KB (654799/668742)
    object_overhead: 0.25 KB
    Total Ansatz Object: 112.247 MB
    Memory Efficiency: 97.9% (useful data vs total)
    Memory Hotspot: circuit_gates (100.0% of object)
  Memory/Clique: No cliques available for analysis
  → Net Memory Delta: CPU +176.52 MB, GPU +26.00 MB [circuit vs delta: 17.8 MB diff]
Processing operator 58/645 - CPU: 5269.90 MB, GPU: 38.1056 GB free
Operator 58: 73904 Pauli terms -> 22414 cliques (efficiency: 30.3%) - Memory: 121.20 MB
  STL Containers: PauliMap=98.24MB, CommOps=52.32MB, Cliques=1.59MB
  Container Overhead: PauliMap=1.0x, CommOps=10.3x
  Container Details: CommOps size=73904, capacity=761920, PauliMap size=761920, buckets=1447153
  Accumulated Data: Coeffs=65.41MB, ZMasks=65.41MB, Observables=22.66MB
  Circuit + Temp Memory: +141.96 MB, Persistent Circuit: +135.29 MB, Cleaned Temp: 6.67 MB
  Cumulative Circuit Memory: 4624.01 MB (Total circuits: 0)
  Complete Ansatz Memory Breakdown:
    shared_ptr overhead: 0.19 KB
    theta (params): 0.02 KB (0/0)
    parameterized_gates: 0.02 KB (0/0)
    gate_parameter_pointers: 0.02 KB (nested structure)
    gate_coefficients: 0.02 KB (estimated)
    excitation_index_map: 0.06 KB (string map)
    circuit_gates: 169341.24 KB (575674/985258)
    object_overhead: 0.25 KB
    Total Ansatz Object: 165.373 MB
    Memory Efficiency: 58.4% (useful data vs total)
    Memory Hotspot: circuit_gates (100.0% of object)
  Memory/Clique: No cliques available for analysis
  → Net Memory Delta: CPU +153.01 MB, GPU +22.00 MB [circuit vs delta: 17.7 MB diff]
Processing operator 59/645 - CPU: 5422.91 MB, GPU: 38.0841 GB free
Operator 59: 73904 Pauli terms -> 22036 cliques (efficiency: 29.8%) - Memory: 121.54 MB
  STL Containers: PauliMap=98.55MB, CommOps=52.51MB, Cliques=1.57MB
  Container Overhead: PauliMap=1.0x, CommOps=10.3x
  Container Details: CommOps size=73904, capacity=764672, PauliMap size=764672, buckets=1447153
  Accumulated Data: Coeffs=66.53MB, ZMasks=66.53MB, Observables=23.35MB
  Circuit + Temp Memory: +139.05 MB, Persistent Circuit: +132.23 MB, Cleaned Temp: 6.82 MB
  Cumulative Circuit Memory: 4756.24 MB (Total circuits: 0)
  Complete Ansatz Memory Breakdown:
    shared_ptr overhead: 0.19 KB
    theta (params): 0.02 KB (0/0)
    parameterized_gates: 0.02 KB (0/0)
    gate_parameter_pointers: 0.02 KB (nested structure)
    gate_coefficients: 0.02 KB (estimated)
    excitation_index_map: 0.06 KB (string map)
    circuit_gates: 99378.15 KB (570408/578200)
    object_overhead: 0.25 KB
    Total Ansatz Object: 97.050 MB
    Memory Efficiency: 98.7% (useful data vs total)
    Memory Hotspot: circuit_gates (100.0% of object)
  Memory/Clique: No cliques available for analysis
  → Net Memory Delta: CPU +150.09 MB, GPU +22.00 MB [circuit vs delta: 17.9 MB diff]

--- SUMMARY: Operators 50-59 ---
  Batch Memory Growth: +1599.34 MB
  Pauli Terms Generated: 752576
  Commuting Groups: 236574
  Average Efficiency: 31.5%
  Cumulative Memory: 5573.00 MB
  Average Memory/Operator: 159.93 MB
  Theoretical Memory/Op: 4.61 MB (bloat factor: 34.7x)
  Memory Growth Rate: 159.9 MB/op
  Memory Bloat Factor: 34.7x
  System Memory Pressure: 12.0%
--- END SUMMARY ---

Processing operator 60/645 - CPU: 5573.00 MB, GPU: 38.0626 GB free
Operator 60: 73904 Pauli terms -> 23158 cliques (efficiency: 31.3%) - Memory: 120.82 MB
  STL Containers: PauliMap=97.85MB, CommOps=52.09MB, Cliques=1.62MB
  Container Overhead: PauliMap=1.0x, CommOps=10.3x
  Container Details: CommOps size=73904, capacity=758560, PauliMap size=758560, buckets=1447153
  Accumulated Data: Coeffs=67.66MB, ZMasks=67.66MB, Observables=24.02MB
  Circuit + Temp Memory: +145.60 MB, Persistent Circuit: +139.38 MB, Cleaned Temp: 6.21 MB
  Cumulative Circuit Memory: 4895.62 MB (Total circuits: 0)
  Complete Ansatz Memory Breakdown:
    shared_ptr overhead: 0.19 KB
    theta (params): 0.02 KB (0/0)
    parameterized_gates: 0.02 KB (0/0)
    gate_parameter_pointers: 0.02 KB (nested structure)
    gate_coefficients: 0.02 KB (estimated)
    excitation_index_map: 0.06 KB (string map)
    circuit_gates: 133306.27 KB (598212/775600)
    object_overhead: 0.25 KB
    Total Ansatz Object: 130.182 MB
    Memory Efficiency: 77.1% (useful data vs total)
    Memory Hotspot: circuit_gates (100.0% of object)
  Memory/Clique: No cliques available for analysis
  → Net Memory Delta: CPU +156.88 MB, GPU +24.00 MB [circuit vs delta: 17.5 MB diff]
Processing operator 61/645 - CPU: 5729.89 MB, GPU: 38.0392 GB free
Operator 61: 65600 Pauli terms -> 22164 cliques (efficiency: 33.8%) - Memory: 124.74 MB
  STL Containers: PauliMap=101.71MB, CommOps=54.40MB, Cliques=1.52MB
  Container Overhead: PauliMap=1.0x, CommOps=12.1x
  Container Details: CommOps size=65600, capacity=792319, PauliMap size=792319, buckets=1447153
  Accumulated Data: Coeffs=61.06MB, ZMasks=61.06MB, Observables=24.73MB
  Circuit + Temp Memory: +149.62 MB, Persistent Circuit: +144.86 MB, Cleaned Temp: 4.77 MB
  Cumulative Circuit Memory: 5040.48 MB (Total circuits: 0)
  Complete Ansatz Memory Breakdown:
    shared_ptr overhead: 0.19 KB
    theta (params): 0.02 KB (0/0)
    parameterized_gates: 0.02 KB (0/0)
    gate_parameter_pointers: 0.02 KB (nested structure)
    gate_coefficients: 0.02 KB (estimated)
    excitation_index_map: 0.06 KB (string map)
    circuit_gates: 116727.21 KB (566980/679140)
    object_overhead: 0.25 KB
    Total Ansatz Object: 113.992 MB
    Memory Efficiency: 83.5% (useful data vs total)
    Memory Hotspot: circuit_gates (100.0% of object)
[...]
  Accumulated Data: Coeffs=326.54MB, ZMasks=326.54MB, Observables=190.53MB
  Circuit + Temp Memory: +161.45 MB, Persistent Circuit: +154.90 MB, Cleaned Temp: 6.54 MB
  Cumulative Circuit Memory: 37958.80 MB (Total circuits: 0)
  Complete Ansatz Memory Breakdown:
    shared_ptr overhead: 0.19 KB
    theta (params): 0.02 KB (0/0)
    parameterized_gates: 0.02 KB (0/0)
    gate_parameter_pointers: 0.02 KB (nested structure)
    gate_coefficients: 0.02 KB (estimated)
    excitation_index_map: 0.06 KB (string map)
    circuit_gates: 109093.21 KB (621836/634724)
    object_overhead: 0.25 KB
    Total Ansatz Object: 106.537 MB
    Memory Efficiency: 98.0% (useful data vs total)
    Memory Hotspot: circuit_gates (100.0% of object)
  Memory/Clique: No cliques available for analysis
  → Net Memory Delta: CPU +161.47 MB, GPU +26.00 MB [circuit vs delta: 6.6 MB diff]
Processing operator 301/645 - CPU: 42500.68 MB, GPU: 32.6681 GB free
Operator 301: 75240 Pauli terms -> 31587 cliques (efficiency: 42.0%) - Memory: 122.24 MB
  STL Containers: PauliMap=97.85MB, CommOps=52.09MB, Cliques=2.02MB
  Container Overhead: PauliMap=1.0x, CommOps=10.1x
  Container Details: CommOps size=75240, capacity=758576, PauliMap size=758576, buckets=1447153
  Accumulated Data: Coeffs=345.57MB, ZMasks=345.57MB, Observables=191.35MB
  Circuit + Temp Memory: +197.70 MB, Persistent Circuit: +191.59 MB, Cleaned Temp: 6.11 MB
  Cumulative Circuit Memory: 38150.39 MB (Total circuits: 0)
  Complete Ansatz Memory Breakdown:
    shared_ptr overhead: 0.19 KB
    theta (params): 0.02 KB (0/0)
    parameterized_gates: 0.02 KB (0/0)
    gate_parameter_pointers: 0.02 KB (nested structure)
    gate_coefficients: 0.02 KB (estimated)
    excitation_index_map: 0.06 KB (string map)
    circuit_gates: 137514.46 KB (746417/800084)
    object_overhead: 0.25 KB
    Total Ansatz Object: 134.292 MB
    Memory Efficiency: 93.3% (useful data vs total)
    Memory Hotspot: circuit_gates (100.0% of object)
  Memory/Clique: No cliques available for analysis
  → Net Memory Delta: CPU +215.03 MB, GPU +32.00 MB [circuit vs delta: 23.4 MB diff]
Processing operator 302/645 - CPU: 42715.71 MB, GPU: 32.6368 GB free
Operator 302: 77680 Pauli terms -> 24394 cliques (efficiency: 31.4%) - Memory: 118.14 MB
  STL Containers: PauliMap=95.29MB, CommOps=50.55MB, Cliques=1.71MB
  Container Overhead: PauliMap=1.0x, CommOps=9.5x
  Container Details: CommOps size=77680, capacity=736159, PauliMap size=736159, buckets=1447153
  Accumulated Data: Coeffs=357.96MB, ZMasks=357.96MB, Observables=192.31MB
  Circuit + Temp Memory: +148.79 MB, Persistent Circuit: +142.08 MB, Cleaned Temp: 6.70 MB
  Cumulative Circuit Memory: 38292.47 MB (Total circuits: 0)
  Complete Ansatz Memory Breakdown:
    shared_ptr overhead: 0.19 KB
    theta (params): 0.02 KB (0/0)
    parameterized_gates: 0.02 KB (0/0)
    gate_parameter_pointers: 0.02 KB (nested structure)
    gate_coefficients: 0.02 KB (estimated)
    excitation_index_map: 0.06 KB (string map)
    circuit_gates: 138633.71 KB (612442/806596)
    object_overhead: 0.25 KB
    Total Ansatz Object: 135.385 MB
    Memory Efficiency: 75.9% (useful data vs total)
    Memory Hotspot: circuit_gates (100.0% of object)
  Memory/Clique: No cliques available for analysis
  → Net Memory Delta: CPU +160.17 MB, GPU +24.00 MB [circuit vs delta: 18.1 MB diff]
Processing operator 303/645 - CPU: 42875.88 MB, GPU: 32.6134 GB free
Operator 303: 77680 Pauli terms -> 24096 cliques (efficiency: 31.0%) - Memory: 117.44 MB
  STL Containers: PauliMap=94.77MB, CommOps=50.24MB, Cliques=1.70MB
  Container Overhead: PauliMap=1.0x, CommOps=9.4x
  Container Details: CommOps size=77680, capacity=731647, PauliMap size=731647, buckets=1447153
  Accumulated Data: Coeffs=359.15MB, ZMasks=359.15MB, Observables=193.05MB
  Circuit + Temp Memory: +149.81 MB, Persistent Circuit: +143.37 MB, Cleaned Temp: 6.45 MB
  Cumulative Circuit Memory: 38435.84 MB (Total circuits: 0)
  Complete Ansatz Memory Breakdown:
    shared_ptr overhead: 0.19 KB
    theta (params): 0.02 KB (0/0)
    parameterized_gates: 0.02 KB (0/0)
    gate_parameter_pointers: 0.02 KB (nested structure)
    gate_coefficients: 0.02 KB (estimated)
    excitation_index_map: 0.06 KB (string map)
    circuit_gates: 155159.84 KB (604644/902748)
    object_overhead: 0.25 KB
    Total Ansatz Object: 151.524 MB
    Memory Efficiency: 67.0% (useful data vs total)
    Memory Hotspot: circuit_gates (100.0% of object)
  Memory/Clique: No cliques available for analysis
  → Net Memory Delta: CPU +161.18 MB, GPU +24.00 MB [circuit vs delta: 17.8 MB diff]
Processing operator 304/645 - CPU: 43037.06 MB, GPU: 32.5900 GB free
Operator 304: 77680 Pauli terms -> 24476 cliques (efficiency: 31.5%) - Memory: 118.18 MB
  STL Containers: PauliMap=95.31MB, CommOps=50.56MB, Cliques=1.71MB
  Container Overhead: PauliMap=1.0x, CommOps=9.5x
  Container Details: CommOps size=77680, capacity=736367, PauliMap size=736367, buckets=1447153
  Accumulated Data: Coeffs=360.33MB, ZMasks=360.33MB, Observables=193.79MB
  Circuit + Temp Memory: +152.57 MB, Persistent Circuit: +145.96 MB, Cleaned Temp: 6.61 MB
  Cumulative Circuit Memory: 38581.80 MB (Total circuits: 0)
  Complete Ansatz Memory Breakdown:
    shared_ptr overhead: 0.19 KB
    theta (params): 0.02 KB (0/0)
    parameterized_gates: 0.02 KB (0/0)
    gate_parameter_pointers: 0.02 KB (nested structure)
    gate_coefficients: 0.02 KB (estimated)
    excitation_index_map: 0.06 KB (string map)
    circuit_gates: 160552.59 KB (614064/934124)
    object_overhead: 0.25 KB
    Total Ansatz Object: 156.790 MB
    Memory Efficiency: 65.7% (useful data vs total)
    Memory Hotspot: circuit_gates (100.0% of object)
  Memory/Clique: No cliques available for analysis
  → Net Memory Delta: CPU +164.30 MB, GPU +26.00 MB [circuit vs delta: 18.3 MB diff]
Processing operator 305/645 - CPU: 43201.36 MB, GPU: 32.5646 GB free
Operator 305: 77680 Pauli terms -> 26019 cliques (efficiency: 33.5%) - Memory: 118.73 MB
  STL Containers: PauliMap=95.56MB, CommOps=50.71MB, Cliques=1.78MB
  Container Overhead: PauliMap=1.0x, CommOps=9.5x
  Container Details: CommOps size=77680, capacity=738527, PauliMap size=738527, buckets=1447153
  Accumulated Data: Coeffs=361.52MB, ZMasks=361.52MB, Observables=194.54MB
  Circuit + Temp Memory: +159.31 MB, Persistent Circuit: +152.66 MB, Cleaned Temp: 6.64 MB
  Cumulative Circuit Memory: 38734.47 MB (Total circuits: 0)
  Complete Ansatz Memory Breakdown:
    shared_ptr overhead: 0.19 KB
    theta (params): 0.02 KB (0/0)
    parameterized_gates: 0.02 KB (0/0)
    gate_parameter_pointers: 0.02 KB (nested structure)
    gate_coefficients: 0.02 KB (estimated)
    excitation_index_map: 0.06 KB (string map)
    circuit_gates: 167409.37 KB (636467/974018)
    object_overhead: 0.25 KB
    Total Ansatz Object: 163.486 MB
    Memory Efficiency: 65.3% (useful data vs total)
    Memory Hotspot: circuit_gates (100.0% of object)
  Memory/Clique: No cliques available for analysis
  → Net Memory Delta: CPU +171.11 MB, GPU +26.00 MB [circuit vs delta: 18.4 MB diff]
Processing operator 306/645 - CPU: 43372.47 MB, GPU: 32.5392 GB free
Operator 306: 71334 Pauli terms -> 24608 cliques (efficiency: 34.5%) - Memory: 113.88 MB
  STL Containers: PauliMap=86.79MB, CommOps=48.81MB, Cliques=1.67MB
  Container Overhead: PauliMap=1.0x, CommOps=10.0x
  Container Details: CommOps size=71334, capacity=710876, PauliMap size=710876, buckets=712697
  Accumulated Data: Coeffs=333.07MB, ZMasks=333.07MB, Observables=195.33MB
  Circuit + Temp Memory: +151.07 MB, Persistent Circuit: +144.37 MB, Cleaned Temp: 6.70 MB
  Cumulative Circuit Memory: 38878.84 MB (Total circuits: 0)
  Complete Ansatz Memory Breakdown:
    shared_ptr overhead: 0.19 KB
    theta (params): 0.02 KB (0/0)
    parameterized_gates: 0.02 KB (0/0)
    gate_parameter_pointers: 0.02 KB (nested structure)
    gate_coefficients: 0.02 KB (estimated)
    excitation_index_map: 0.06 KB (string map)
    circuit_gates: 103980.96 KB (589968/604980)
    object_overhead: 0.25 KB
    Total Ansatz Object: 101.544 MB
    Memory Efficiency: 97.5% (useful data vs total)
    Memory Hotspot: circuit_gates (100.0% of object)
  Memory/Clique: No cliques available for analysis
  → Net Memory Delta: CPU +151.18 MB, GPU +24.00 MB [circuit vs delta: 6.8 MB diff]
Processing operator 307/645 - CPU: 43523.66 MB, GPU: 32.5157 GB free
Operator 307: 75240 Pauli terms -> 30634 cliques (efficiency: 40.7%) - Memory: 122.63 MB
  STL Containers: PauliMap=98.27MB, CommOps=52.34MB, Cliques=1.98MB
  Container Overhead: PauliMap=1.0x, CommOps=10.1x
  Container Details: CommOps size=75240, capacity=762224, PauliMap size=762224, buckets=1447153
  Accumulated Data: Coeffs=352.46MB, ZMasks=352.46MB, Observables=196.08MB
  Circuit + Temp Memory: +193.34 MB, Persistent Circuit: +187.40 MB, Cleaned Temp: 5.94 MB
  Cumulative Circuit Memory: 39066.24 MB (Total circuits: 0)
  Complete Ansatz Memory Breakdown:
    shared_ptr overhead: 0.19 KB
    theta (params): 0.02 KB (0/0)
    parameterized_gates: 0.02 KB (0/0)
    gate_parameter_pointers: 0.02 KB (nested structure)
    gate_coefficients: 0.02 KB (estimated)
    excitation_index_map: 0.06 KB (string map)
    circuit_gates: 210899.59 KB (733900/1227052)
    object_overhead: 0.25 KB
    Total Ansatz Object: 205.957 MB
    Memory Efficiency: 59.8% (useful data vs total)
    Memory Hotspot: circuit_gates (100.0% of object)
  Memory/Clique: No cliques available for analysis
  → Net Memory Delta: CPU +210.43 MB, GPU +32.00 MB [circuit vs delta: 23.0 MB diff]
Processing operator 308/645 - CPU: 43734.09 MB, GPU: 32.4845 GB free
Operator 308: 75240 Pauli terms -> 24226 cliques (efficiency: 32.2%) - Memory: 121.46 MB
  STL Containers: PauliMap=98.12MB, CommOps=52.25MB, Cliques=1.68MB
  Container Overhead: PauliMap=1.0x, CommOps=10.1x
  Container Details: CommOps size=75240, capacity=760880, PauliMap size=760880, buckets=1447153
  Accumulated Data: Coeffs=353.61MB, ZMasks=353.61MB, Observables=197.02MB
  Circuit + Temp Memory: +152.34 MB, Persistent Circuit: +146.40 MB, Cleaned Temp: 5.94 MB
  Cumulative Circuit Memory: 39212.64 MB (Total circuits: 0)
  Complete Ansatz Memory Breakdown:
    shared_ptr overhead: 0.19 KB
    theta (params): 0.02 KB (0/0)
    parameterized_gates: 0.02 KB (0/0)
    gate_parameter_pointers: 0.02 KB (nested structure)
    gate_coefficients: 0.02 KB (estimated)
    excitation_index_map: 0.06 KB (string map)
    circuit_gates: 136312.71 KB (620476/793092)
    object_overhead: 0.25 KB
    Total Ansatz Object: 133.118 MB
    Memory Efficiency: 78.2% (useful data vs total)
    Memory Hotspot: circuit_gates (100.0% of object)
  Memory/Clique: No cliques available for analysis
  → Net Memory Delta: CPU +163.82 MB, GPU +24.00 MB [circuit vs delta: 17.4 MB diff]
Processing operator 309/645 - CPU: 43897.90 MB, GPU: 32.4611 GB free
Operator 309: 75240 Pauli terms -> 23260 cliques (efficiency: 30.9%) - Memory: 120.67 MB
  STL Containers: PauliMap=97.61MB, CommOps=51.94MB, Cliques=1.64MB
  Container Overhead: PauliMap=1.0x, CommOps=10.1x
  Container Details: CommOps size=75240, capacity=756496, PauliMap size=756496, buckets=1447153
  Accumulated Data: Coeffs=354.75MB, ZMasks=354.75MB, Observables=197.76MB
  Circuit + Temp Memory: +147.76 MB, Persistent Circuit: +141.82 MB, Cleaned Temp: 5.94 MB
  Cumulative Circuit Memory: 39354.46 MB (Total circuits: 0)
  Complete Ansatz Memory Breakdown:
    shared_ptr overhead: 0.19 KB
    theta (params): 0.02 KB (0/0)
    parameterized_gates: 0.02 KB (0/0)
    gate_parameter_pointers: 0.02 KB (nested structure)
    gate_coefficients: 0.02 KB (estimated)
    excitation_index_map: 0.06 KB (string map)
    circuit_gates: 138747.49 KB (599874/807258)
    object_overhead: 0.25 KB
    Total Ansatz Object: 135.496 MB
    Memory Efficiency: 74.3% (useful data vs total)
    Memory Hotspot: circuit_gates (100.0% of object)
  Memory/Clique: No cliques available for analysis
  → Net Memory Delta: CPU +158.85 MB, GPU +24.00 MB [circuit vs delta: 17.0 MB diff]

--- SUMMARY: Operators 300-309 ---
  Batch Memory Growth: +1717.55 MB
  Pauli Terms Generated: 754348
  Commuting Groups: 260088
  Average Efficiency: 34.5%
  Cumulative Memory: 44056.75 MB
  Average Memory/Operator: 171.75 MB
  Theoretical Memory/Op: 4.90 MB (bloat factor: 35.0x)
  Memory Growth Rate: 171.8 MB/op
  Memory Bloat Factor: 35.0x
  System Memory Pressure: 26.9%
--- END SUMMARY ---

Processing operator 310/645 - CPU: 44056.75 MB, GPU: 32.4376 GB free
Operator 310: 75240 Pauli terms -> 23030 cliques (efficiency: 30.6%) - Memory: 121.37 MB
  STL Containers: PauliMap=98.19MB, CommOps=52.29MB, Cliques=1.63MB
  Container Overhead: PauliMap=1.0x, CommOps=10.1x
  Container Details: CommOps size=75240, capacity=761552, PauliMap size=761552, buckets=1447153
  Accumulated Data: Coeffs=355.90MB, ZMasks=355.90MB, Observables=198.47MB
  Circuit + Temp Memory: +149.05 MB, Persistent Circuit: +143.81 MB, Cleaned Temp: 5.24 MB
  Cumulative Circuit Memory: 39498.28 MB (Total circuits: 0)
  Complete Ansatz Memory Breakdown:
    shared_ptr overhead: 0.19 KB
    theta (params): 0.02 KB (0/0)
    parameterized_gates: 0.02 KB (0/0)
    gate_parameter_pointers: 0.02 KB (nested structure)
    gate_coefficients: 0.02 KB (estimated)
    excitation_index_map: 0.06 KB (string map)
    circuit_gates: 110635.96 KB (595840/643700)
    object_overhead: 0.25 KB
    Total Ansatz Object: 108.044 MB
    Memory Efficiency: 92.6% (useful data vs total)
    Memory Hotspot: circuit_gates (100.0% of object)
  Memory/Clique: No cliques available for analysis
  → Net Memory Delta: CPU +160.56 MB, GPU +22.00 MB [circuit vs delta: 16.8 MB diff]
Processing operator 311/645 - CPU: 44217.32 MB, GPU: 32.4161 GB free
Operator 311: 75240 Pauli terms -> 24576 cliques (efficiency: 32.7%) - Memory: 121.92 MB
  STL Containers: PauliMap=98.44MB, CommOps=52.44MB, Cliques=1.70MB
  Container Overhead: PauliMap=1.0x, CommOps=10.2x
  Container Details: CommOps size=75240, capacity=763728, PauliMap size=763728, buckets=1447153
  Accumulated Data: Coeffs=357.05MB, ZMasks=357.05MB, Observables=199.17MB
  Circuit + Temp Memory: +153.32 MB, Persistent Circuit: +148.03 MB, Cleaned Temp: 5.30 MB
  Cumulative Circuit Memory: 39646.30 MB (Total circuits: 0)
  Complete Ansatz Memory Breakdown:
    shared_ptr overhead: 0.19 KB
    theta (params): 0.02 KB (0/0)
    parameterized_gates: 0.02 KB (0/0)
    gate_parameter_pointers: 0.02 KB (nested structure)
    gate_coefficients: 0.02 KB (estimated)
    excitation_index_map: 0.06 KB (string map)
    circuit_gates: 151394.40 KB (622430/880840)
    object_overhead: 0.25 KB
    Total Ansatz Object: 147.847 MB
    Memory Efficiency: 70.7% (useful data vs total)
    Memory Hotspot: circuit_gates (100.0% of object)
  Memory/Clique: No cliques available for analysis
  → Net Memory Delta: CPU +164.46 MB, GPU +24.00 MB [circuit vs delta: 16.4 MB diff]
Processing operator 312/645 - CPU: 44381.78 MB, GPU: 32.3927 GB free
Operator 312: 70360 Pauli terms -> 23705 cliques (efficiency: 33.7%) - Memory: 118.53 MB
  STL Containers: PauliMap=96.25MB, CommOps=51.13MB, Cliques=1.62MB
  Container Overhead: PauliMap=1.0x, CommOps=10.6x
  Container Details: CommOps size=70360, capacity=744608, PauliMap size=744608, buckets=1447153
  Accumulated Data: Coeffs=334.97MB, ZMasks=334.97MB, Observables=199.92MB
  Circuit + Temp Memory: +143.00 MB, Persistent Circuit: +136.46 MB, Cleaned Temp: 6.54 MB
  Cumulative Circuit Memory: 39782.77 MB (Total circuits: 0)
  Complete Ansatz Memory Breakdown:
    shared_ptr overhead: 0.19 KB
    theta (params): 0.02 KB (0/0)
    parameterized_gates: 0.02 KB (0/0)
    gate_parameter_pointers: 0.02 KB (nested structure)
    gate_coefficients: 0.02 KB (estimated)
    excitation_index_map: 0.06 KB (string map)
    circuit_gates: 198620.15 KB (588633/1155608)
    object_overhead: 0.25 KB
    Total Ansatz Object: 193.966 MB
    Memory Efficiency: 50.9% (useful data vs total)
    Memory Hotspot: circuit_gates (100.0% of object)
  Memory/Clique: No cliques available for analysis
  → Net Memory Delta: CPU +154.75 MB, GPU +24.00 MB [circuit vs delta: 18.3 MB diff]
Processing operator 313/645 - CPU: 44536.53 MB, GPU: 32.3693 GB free
Operator 313: 66752 Pauli terms -> 25228 cliques (efficiency: 37.8%) - Memory: 125.36 MB
  STL Containers: PauliMap=101.74MB, CommOps=54.42MB, Cliques=1.66MB
  Container Overhead: PauliMap=1.0x, CommOps=11.9x
  Container Details: CommOps size=66752, capacity=792543, PauliMap size=792543, buckets=1447153
  Accumulated Data: Coeffs=318.81MB, ZMasks=318.81MB, Observables=200.64MB
  Circuit + Temp Memory: +161.84 MB, Persistent Circuit: +155.62 MB, Cleaned Temp: 6.22 MB
  Cumulative Circuit Memory: 39938.39 MB (Total circuits: 0)
  Complete Ansatz Memory Breakdown:
    shared_ptr overhead: 0.19 KB
    theta (params): 0.02 KB (0/0)
    parameterized_gates: 0.02 KB (0/0)
    gate_parameter_pointers: 0.02 KB (nested structure)
    gate_coefficients: 0.02 KB (estimated)
    excitation_index_map: 0.06 KB (string map)
    circuit_gates: 130953.99 KB (624162/761914)
    object_overhead: 0.25 KB
    Total Ansatz Object: 127.885 MB
    Memory Efficiency: 81.9% (useful data vs total)
    Memory Hotspot: circuit_gates (100.0% of object)
  Memory/Clique: No cliques available for analysis
  → Net Memory Delta: CPU +173.62 MB, GPU +26.00 MB [circuit vs delta: 18.0 MB diff]
Processing operator 314/645 - CPU: 44710.15 MB, GPU: 32.3439 GB free
Operator 314: 77680 Pauli terms -> 23752 cliques (efficiency: 30.6%) - Memory: 117.55 MB
  STL Containers: PauliMap=94.90MB, CommOps=50.32MB, Cliques=1.68MB
  Container Overhead: PauliMap=1.0x, CommOps=9.4x
  Container Details: CommOps size=77680, capacity=732799, PauliMap size=732799, buckets=1447153
  Accumulated Data: Coeffs=372.19MB, ZMasks=372.19MB, Observables=201.41MB
  Circuit + Temp Memory: +142.79 MB, Persistent Circuit: +136.82 MB, Cleaned Temp: 5.97 MB
  Cumulative Circuit Memory: 40075.21 MB (Total circuits: 0)
  Complete Ansatz Memory Breakdown:
    shared_ptr overhead: 0.19 KB
    theta (params): 0.02 KB (0/0)
    parameterized_gates: 0.02 KB (0/0)
    gate_parameter_pointers: 0.02 KB (nested structure)
    gate_coefficients: 0.02 KB (estimated)
    excitation_index_map: 0.06 KB (string map)
    circuit_gates: 136878.87 KB (610370/796386)
    object_overhead: 0.25 KB
    Total Ansatz Object: 133.671 MB
    Memory Efficiency: 76.6% (useful data vs total)
    Memory Hotspot: circuit_gates (100.0% of object)
  Memory/Clique: No cliques available for analysis
  → Net Memory Delta: CPU +154.29 MB, GPU +24.00 MB [circuit vs delta: 17.5 MB diff]
Processing operator 315/645 - CPU: 44864.45 MB, GPU: 32.3204 GB free
Operator 315: 77680 Pauli terms -> 23025 cliques (efficiency: 29.6%) - Memory: 117.06 MB
  STL Containers: PauliMap=94.60MB, CommOps=50.13MB, Cliques=1.65MB
  Container Overhead: PauliMap=1.0x, CommOps=9.4x
  Container Details: CommOps size=77680, capacity=730143, PauliMap size=730143, buckets=1447153
  Accumulated Data: Coeffs=373.37MB, ZMasks=373.37MB, Observables=202.14MB
  Circuit + Temp Memory: +146.71 MB, Persistent Circuit: +139.56 MB, Cleaned Temp: 7.15 MB
  Cumulative Circuit Memory: 40214.77 MB (Total circuits: 0)
  Complete Ansatz Memory Breakdown:
    shared_ptr overhead: 0.19 KB
    theta (params): 0.02 KB (0/0)
    parameterized_gates: 0.02 KB (0/0)
    gate_parameter_pointers: 0.02 KB (nested structure)
    gate_coefficients: 0.02 KB (estimated)
    excitation_index_map: 0.06 KB (string map)
    circuit_gates: 108504.37 KB (594981/631298)
    object_overhead: 0.25 KB
    Total Ansatz Object: 105.962 MB
    Memory Efficiency: 94.2% (useful data vs total)
    Memory Hotspot: circuit_gates (100.0% of object)
  Memory/Clique: No cliques available for analysis
  → Net Memory Delta: CPU +158.69 MB, GPU +24.00 MB [circuit vs delta: 19.1 MB diff]
Processing operator 316/645 - CPU: 45023.14 MB, GPU: 32.2970 GB free
